<?xml version="1.0" encoding="UTF-8"?>

<!-- generated on 2026-04-22 14:53:37 by Eclipse SUMO netconvert Version 1.12.0
<configuration xmlns:xsi="http://www.w3.org/2001/XMLSchema-instance" xsi:noNamespaceSchemaLocation="http://sumo.dlr.de/xsd/netconvertConfiguration.xsd">

    <input>
        <osm-files value="map5.osm"/>
    </input>

    <output>
        <output-file value="map5.net.xml"/>
    </output>

    <projection>
        <proj.utm value="true"/>
    </projection>

    <processing>
        <geometry.remove value="true"/>
        <roundabouts.guess value="true"/>
        <edges.join value="true"/>
    </processing>

    <tls_building>
        <tls.guess value="true"/>
        <tls.join value="true"/>
    </tls_building>

    <ramp_guessing>
        <ramps.guess value="true"/>
    </ramp_guessing>

    <edge_removal>
        <remove-edges.isolated value="true"/>
    </edge_removal>

    <junctions>
        <no-internal-links value="true"/>
        <junctions.join value="true"/>
        <junctions.join-dist value="5"/>
    </junctions>

    <report>
        <aggregate-warnings value="5"/>
    </report>

</configuration>
-->

<net version="1.9" junctionCornerDetail="5" limitTurnSpeed="5.50" xmlns:xsi="http://www.w3.org/2001/XMLSchema-instance" xsi:noNamespaceSchemaLocation="http://sumo.dlr.de/xsd/net_file.xsd">

    <location netOffset="-718230.73,322911.29" convBoundary="0.00,0.00,4451.33,3364.33" origBoundary="-79.070332,-2.919730,-78.984747,-2.878394" projParameter="+proj=utm +zone=17 +ellps=WGS84 +datum=WGS84 +units=m +no_defs"/>

    <type id="highway.bridleway" priority="1" numLanes="1" speed="2.78" allow="pedestrian" oneway="1" width="2.00"/>
    <type id="highway.bus_guideway" priority="1" numLanes="1" speed="27.78" allow="bus" oneway="1"/>
    <type id="highway.cycleway" priority="1" numLanes="1" speed="8.33" allow="bicycle" oneway="0" width="1.00"/>
    <type id="highway.footway" priority="1" numLanes="1" speed="2.78" allow="pedestrian" oneway="1" width="2.00"/>
    <type id="highway.ford" priority="1" numLanes="1" speed="2.78" allow="army" oneway="0"/>
    <type id="highway.living_street" priority="2" numLanes="1" speed="2.78" disallow="tram rail_urban rail rail_electric rail_fast ship" oneway="0"/>
    <type id="highway.motorway" priority="14" numLanes="2" speed="39.44" allow="private emergency authority army vip passenger hov taxi bus coach delivery truck trailer motorcycle evehicle custom1 custom2" oneway="1"/>
    <type id="highway.motorway_link" priority="9" numLanes="1" speed="22.22" allow="private emergency authority army vip passenger hov taxi bus coach delivery truck trailer motorcycle evehicle custom1 custom2" oneway="1"/>
    <type id="highway.path" priority="1" numLanes="1" speed="2.78" allow="pedestrian bicycle" oneway="0" width="2.00"/>
    <type id="highway.pedestrian" priority="1" numLanes="1" speed="2.78" allow="pedestrian" oneway="1" width="2.00"/>
    <type id="highway.primary" priority="12" numLanes="2" speed="27.78" disallow="tram rail_urban rail rail_electric rail_fast ship" oneway="0"/>
    <type id="highway.primary_link" priority="7" numLanes="1" speed="22.22" disallow="tram rail_urban rail rail_electric rail_fast ship" oneway="0"/>
    <type id="highway.raceway" priority="15" numLanes="2" speed="83.33" allow="vip" oneway="0"/>
    <type id="highway.residential" priority="3" numLanes="1" speed="13.89" disallow="tram rail_urban rail rail_electric rail_fast ship" oneway="0"/>
    <type id="highway.secondary" priority="11" numLanes="1" speed="27.78" disallow="tram rail_urban rail rail_electric rail_fast ship" oneway="0"/>
    <type id="highway.secondary_link" priority="6" numLanes="1" speed="22.22" disallow="tram rail_urban rail rail_electric rail_fast ship" oneway="0"/>
    <type id="highway.service" priority="1" numLanes="1" speed="5.56" allow="pedestrian delivery bicycle" oneway="0"/>
    <type id="highway.stairs" priority="1" numLanes="1" speed="1.39" allow="pedestrian" oneway="1" width="2.00"/>
    <type id="highway.step" priority="1" numLanes="1" speed="1.39" allow="pedestrian" oneway="1" width="2.00"/>
    <type id="highway.steps" priority="1" numLanes="1" speed="1.39" allow="pedestrian" oneway="1" width="2.00"/>
    <type id="highway.tertiary" priority="10" numLanes="1" speed="22.22" disallow="tram rail_urban rail rail_electric rail_fast ship" oneway="0"/>
    <type id="highway.tertiary_link" priority="5" numLanes="1" speed="22.22" disallow="tram rail_urban rail rail_electric rail_fast ship" oneway="0"/>
    <type id="highway.track" priority="1" numLanes="1" speed="5.56" allow="pedestrian motorcycle moped bicycle" oneway="0"/>
    <type id="highway.trunk" priority="13" numLanes="2" speed="27.78" disallow="pedestrian bicycle tram rail_urban rail rail_electric rail_fast ship" oneway="0"/>
    <type id="highway.trunk_link" priority="8" numLanes="1" speed="22.22" disallow="pedestrian bicycle tram rail_urban rail rail_electric rail_fast ship" oneway="0"/>
    <type id="highway.unclassified" priority="4" numLanes="1" speed="13.89" disallow="tram rail_urban rail rail_electric rail_fast ship" oneway="0"/>
    <type id="highway.unsurfaced" priority="1" numLanes="1" speed="8.33" disallow="tram rail_urban rail rail_electric rail_fast ship" oneway="0"/>
    <type id="railway.highspeed" priority="21" numLanes="1" speed="69.44" allow="rail_fast" oneway="1"/>
    <type id="railway.light_rail" priority="19" numLanes="1" speed="27.78" allow="rail_urban" oneway="1"/>
    <type id="railway.preserved" priority="16" numLanes="1" speed="27.78" allow="rail" oneway="1"/>
    <type id="railway.rail" priority="20" numLanes="1" speed="44.44" allow="rail" oneway="1"/>
    <type id="railway.subway" priority="18" numLanes="1" speed="27.78" allow="rail_urban" oneway="1"/>
    <type id="railway.tram" priority="17" numLanes="1" speed="13.89" allow="tram" oneway="1"/>

    <edge id="-101460267#0" from="cluster_1171549473_3096046881_4007862417" to="3096047308" priority="11" type="highway.secondary" shape="2157.65,1181.45 2145.68,1183.27 2105.59,1194.28">
        <lane id="-101460267#0_0" index="0" disallow="tram rail_urban rail rail_electric rail_fast ship" speed="13.89" length="66.00" shape="2146.82,1187.95 2146.68,1187.97 2110.72,1197.84"/>
        <lane id="-101460267#0_1" index="1" disallow="tram rail_urban rail rail_electric rail_fast ship" speed="13.89" length="66.00" shape="2146.34,1184.78 2146.01,1184.83 2109.88,1194.76"/>
    </edge>
    <edge id="-101460267#2" from="cluster_1171536715_1314751009_1314751010" to="cluster_1171549473_3096046881_4007862417" priority="11" type="highway.secondary" shape="2197.66,1234.24 2195.71,1227.55 2194.33,1222.60 2191.14,1212.01 2188.33,1205.88 2186.31,1201.59 2183.47,1197.59 2179.77,1193.01 2175.14,1189.19 2170.82,1186.30">
        <lane id="-101460267#2_0" index="0" disallow="tram rail_urban rail rail_electric rail_fast ship" speed="13.89" length="71.69" shape="2191.01,1228.56 2189.72,1223.94 2186.63,1213.71 2183.98,1207.89 2182.15,1204.02 2179.64,1200.49 2176.34,1196.40 2172.27,1193.04 2168.15,1190.29"/>
        <lane id="-101460267#2_1" index="1" disallow="tram rail_urban rail rail_electric rail_fast ship" speed="13.89" length="71.69" shape="2194.08,1227.67 2192.80,1223.04 2189.63,1212.58 2186.88,1206.55 2184.93,1202.40 2182.19,1198.56 2178.63,1194.14 2174.18,1190.47 2169.93,1187.63"/>
    </edge>
    <edge id="-1027456933#0" from="9472158357" to="10938979357" priority="1" type="highway.service">
        <lane id="-1027456933#0_0" index="0" allow="pedestrian delivery bicycle" speed="5.56" length="30.01" shape="958.50,1815.73 965.36,1837.36"/>
    </edge>
    <edge id="-1027456933#1" from="10938940124" to="9472158357" priority="1" type="highway.service">
        <lane id="-1027456933#1_0" index="0" allow="pedestrian delivery bicycle" speed="5.56" length="49.39" shape="941.09,1765.39 951.41,1794.84"/>
    </edge>
    <edge id="-1027456933#2" from="9472158352" to="10938940124" priority="1" type="highway.service" shape="784.13,1763.18 778.72,1742.16 776.46,1730.01 776.59,1719.79 782.98,1705.26 796.23,1695.31 811.13,1688.03 824.10,1685.79 838.27,1687.09 846.63,1690.78 857.98,1698.77 867.25,1710.89 871.89,1719.18 878.01,1724.80 889.95,1728.04 906.20,1729.48 919.63,1735.54 927.90,1742.99 936.23,1756.40 938.43,1762.63">
        <lane id="-1027456933#2_0" index="0" allow="pedestrian delivery bicycle" speed="5.56" length="253.73" shape="782.58,1763.57 777.16,1742.51 774.86,1730.15 774.99,1719.44 781.68,1704.23 795.39,1693.94 810.63,1686.49 824.04,1684.17 838.68,1685.52 847.42,1689.38 859.11,1697.60 868.59,1710.01 873.16,1718.18 878.81,1723.36 890.23,1726.46 906.61,1727.91 920.52,1734.19 929.14,1741.96 937.69,1755.70 937.73,1755.82"/>
    </edge>
    <edge id="-1027456934#0" from="9472158357" to="9472158370" priority="1" type="highway.service" shape="954.76,1809.24 956.82,1794.53 961.22,1787.31 970.10,1783.00 1048.16,1756.67">
        <lane id="-1027456934#0_0" index="0" allow="pedestrian delivery bicycle" speed="5.56" length="115.56" shape="955.21,1794.48 955.28,1793.98 960.10,1786.07 969.49,1781.52 1043.07,1756.69"/>
    </edge>
    <edge id="-1027456934#1" from="9472158365" to="9472158357" priority="1" type="highway.service" shape="893.12,1852.90 923.92,1832.77 943.43,1820.49 952.06,1812.72 954.76,1809.24">
        <lane id="-1027456934#1_0" index="0" allow="pedestrian delivery bicycle" speed="5.56" length="75.83" shape="895.73,1849.29 923.06,1831.43 942.46,1819.21 948.51,1813.76"/>
    </edge>
    <edge id="-1027456934#2" from="9472158360" to="9472158365" priority="1" type="highway.service" shape="852.48,1932.99 844.21,1925.65 841.17,1922.42 836.70,1917.32 835.68,1909.60 836.68,1903.71 857.54,1878.49 893.12,1852.90">
        <lane id="-1027456934#2_0" index="0" allow="pedestrian delivery bicycle" speed="5.56" length="112.59" shape="848.70,1931.78 843.10,1926.80 839.99,1923.49 835.18,1918.02 834.06,1909.57 835.17,1903.02 856.44,1877.31 887.71,1854.83"/>
    </edge>
    <edge id="-1053087751" from="cluster_10126513971_3094946578" to="321424941" priority="11" type="highway.secondary" shape="897.43,1308.14 847.85,1300.55">
        <lane id="-1053087751_0" index="0" disallow="tram rail_urban rail rail_electric rail_fast ship" speed="13.89" length="50.56" shape="893.29,1309.12 854.00,1303.11"/>
    </edge>
    <edge id="-1053146630" from="589655753" to="577263192" priority="10" type="highway.tertiary" shape="1820.10,1952.79 1851.13,1872.73 1853.23,1867.34">
        <lane id="-1053146630_0" index="0" disallow="tram rail_urban rail rail_electric rail_fast ship" speed="13.89" length="91.65" shape="1821.21,1945.52 1849.11,1873.52"/>
    </edge>
    <edge id="-107405955" from="3275201914" to="577263133" priority="1" type="highway.service" shape="2177.38,1360.36 2214.85,1335.05 2220.33,1331.35">
        <lane id="-107405955_0" index="0" allow="pedestrian delivery bicycle" speed="5.56" length="51.83" shape="2176.49,1359.03 2213.95,1333.73 2214.46,1333.38"/>
    </edge>
    <edge id="-1096697282#0" from="4063731814" to="766908535" priority="10" type="highway.tertiary">
        <lane id="-1096697282#0_0" index="0" disallow="tram rail_urban rail rail_electric rail_fast ship" speed="8.33" length="35.96" shape="2469.57,674.20 2456.47,698.12"/>
    </edge>
    <edge id="-1096697282#1" from="601481734" to="4063731814" priority="10" type="highway.tertiary">
        <lane id="-1096697282#1_0" index="0" disallow="tram rail_urban rail rail_electric rail_fast ship" speed="8.33" length="42.33" shape="2487.97,641.90 2471.99,669.89"/>
    </edge>
    <edge id="-1101837198" from="cluster_1314751015_611383477_766590963_766590968" to="3275201917" priority="11" type="highway.secondary" shape="1951.85,1126.88 1945.79,1130.65 1929.58,1140.72">
        <lane id="-1101837198_0" index="0" disallow="tram rail_urban rail rail_electric rail_fast ship" speed="13.89" length="25.17" shape="1946.49,1132.10 1940.61,1135.75"/>
    </edge>
    <edge id="-1101837199#0" from="10082831521" to="3275201917" priority="1" type="highway.cycleway" shape="1945.49,1139.72 1938.10,1140.26 1929.58,1140.72">
        <lane id="-1101837199#0_0" index="0" allow="pedestrian bicycle" speed="8.33" length="10.58" width="1.00" shape="1940.01,1140.63 1939.56,1140.66"/>
    </edge>
    <edge id="-1101837199#1" from="cluster_1314751015_611383477_766590963_766590968" to="10082831521" priority="1" type="highway.cycleway" shape="1960.04,1139.33 1953.10,1139.80 1945.49,1139.72">
        <lane id="-1101837199#1_0" index="0" allow="pedestrian bicycle" speed="8.33" length="18.55" width="1.00" shape="1953.92,1140.24 1953.11,1140.30 1947.28,1140.24"/>
    </edge>
    <edge id="-1101837200#1" from="cluster_1314751015_611383477_766590963_766590968" to="cluster_10082831523_3275201923" priority="1" type="highway.cycleway" shape="1966.73,1135.65 1969.41,1131.00 1977.04,1123.24 1988.08,1114.15">
        <lane id="-1101837200#1_0" index="0" allow="pedestrian bicycle" speed="8.33" length="36.19" width="1.00" shape="1970.04,1129.64 1976.70,1122.87 1979.01,1120.98"/>
    </edge>
    <edge id="-1101837201" from="cluster_10082831523_3275201923" to="cluster_1314751015_611383477_766590963_766590968" priority="11" type="highway.secondary" shape="1988.62,1110.61 1966.00,1120.12 1959.02,1123.05">
        <lane id="-1101837201_0" index="0" disallow="tram rail_urban rail rail_electric rail_fast ship" speed="13.89" length="36.77" shape="1976.38,1117.49 1966.61,1121.59 1965.89,1121.90"/>
    </edge>
    <edge id="-1106637260#0" from="cluster_10126513909_11066256581_462574741" to="cluster_10126513912_10126513916" priority="1" type="highway.cycleway" shape="2635.70,713.85 2582.91,774.86 2548.46,819.51 2530.94,857.83 2530.05,863.47 2530.65,865.99 2532.16,874.50">
        <lane id="-1106637260#0_0" index="0" allow="bicycle" speed="8.33" length="200.32" width="1.00" shape="2630.94,720.12 2583.30,775.18 2548.89,819.77 2531.42,857.98 2530.56,863.45 2531.14,865.88 2532.00,870.72"/>
    </edge>
    <edge id="-1106637260#1" from="10126513885" to="cluster_10126513909_11066256581_462574741" priority="1" type="highway.cycleway" shape="2673.79,672.91 2635.70,713.85">
        <lane id="-1106637260#1_0" index="0" allow="bicycle" speed="8.33" length="53.36" width="1.00" shape="2672.40,675.14 2646.98,702.46"/>
    </edge>
    <edge id="-1106637260#2" from="10126513899" to="10126513885" priority="1" type="highway.cycleway" shape="2757.20,586.74 2720.15,625.15 2720.01,630.86 2718.67,635.15 2710.71,644.28 2704.16,650.88 2699.47,655.56 2693.28,658.02 2687.99,659.27 2684.19,661.73 2673.79,672.91">
        <lane id="-1106637260#2_0" index="0" allow="bicycle" speed="8.33" length="123.50" width="1.00" shape="2755.67,589.04 2720.64,625.36 2720.51,630.94 2719.12,635.40 2711.07,644.62 2704.51,651.24 2699.75,655.99 2693.43,658.49 2688.19,659.74 2684.52,662.11 2675.92,671.37"/>
    </edge>
    <edge id="-1106637260#3" from="3096038364" to="10126513899" priority="1" type="highway.cycleway" shape="2927.46,477.50 2925.54,481.92 2912.36,488.68 2889.63,498.79 2856.78,513.81 2836.88,524.51 2833.39,531.47 2829.82,535.41 2824.98,539.86 2814.48,547.15 2792.74,562.36 2786.93,564.81 2781.41,564.02 2776.71,564.99 2757.20,586.74">
        <lane id="-1106637260#3_0" index="0" allow="bicycle" speed="8.33" length="114.79" width="1.00" shape="2844.21,521.14 2837.26,524.88 2833.81,531.76 2830.17,535.76 2825.29,540.25 2814.77,547.56 2792.98,562.80 2786.99,565.33 2781.42,564.52 2776.97,565.44 2759.35,585.09"/>
    </edge>
    <edge id="-1106637261#3" from="cluster_10126513912_10126513916" to="cluster_10126513917_10126513918_2903163420_4316402657_4316402659_4316402661_4316423933_9306565198" priority="1" type="highway.path" shape="2532.16,874.50 2528.72,883.84">
        <lane id="-1106637261#3_0" index="0" allow="pedestrian bicycle" speed="2.78" length="19.66" width="2.00" shape="2533.84,872.82 2533.77,873.01"/>
    </edge>
    <edge id="-1106637263#0" from="10126513935" to="cluster_10082831523_3275201923" priority="1" type="highway.cycleway" shape="2123.41,1062.69 2027.34,1098.93 1988.08,1114.15">
        <lane id="-1106637263#0_0" index="0" allow="bicycle" speed="8.33" length="144.80" width="1.00" shape="2121.24,1064.04 2027.52,1099.40 1989.91,1113.98"/>
    </edge>
    <edge id="-1106637263#1" from="cluster_10940998067_10940998068_10941230342" to="10126513935" priority="1" type="highway.cycleway" shape="2135.58,1058.58 2123.41,1062.69">
        <lane id="-1106637263#1_0" index="0" allow="bicycle" speed="8.33" length="12.84" width="1.00" shape="2135.74,1059.06 2125.98,1062.35"/>
    </edge>
    <edge id="-1106637263#2" from="10126513933" to="cluster_10940998067_10940998068_10941230342" priority="1" type="highway.cycleway" shape="2188.37,1039.69 2157.62,1050.04 2135.58,1058.58">
        <lane id="-1106637263#2_0" index="0" allow="bicycle" speed="8.33" length="56.07" width="1.00" shape="2186.08,1040.99 2157.79,1050.51 2136.46,1058.78"/>
    </edge>
    <edge id="-1106637263#3" from="10126513929" to="10126513933" priority="1" type="highway.cycleway" shape="2341.64,996.61 2319.39,999.66 2286.90,1007.28 2254.59,1017.40 2188.37,1039.69">
        <lane id="-1106637263#3_0" index="0" allow="bicycle" speed="8.33" length="159.56" width="1.00" shape="2339.08,997.46 2319.48,1000.16 2287.03,1007.76 2254.74,1017.87 2191.04,1039.32"/>
    </edge>
    <edge id="-1106637263#4" from="10126513925" to="10126513929" priority="1" type="highway.cycleway" shape="2467.49,977.93 2464.25,979.35 2451.32,982.51 2411.68,986.99 2406.19,987.62 2341.64,996.61">
        <lane id="-1106637263#4_0" index="0" allow="bicycle" speed="8.33" length="127.44" width="1.00" shape="2465.00,979.57 2464.42,979.82 2451.40,983.00 2411.74,987.49 2406.25,988.12 2344.22,996.75"/>
    </edge>
    <edge id="-1106637263#5" from="cluster_10126513917_10126513918_2903163420_4316402657_4316402659_4316402661_4316423933_9306565198" to="10126513925" priority="1" type="highway.cycleway" shape="2527.49,902.24 2520.38,920.22 2515.26,933.63 2509.39,945.49 2502.70,953.80 2487.88,966.78 2480.13,972.73 2467.49,977.93">
        <lane id="-1106637263#5_0" index="0" allow="bicycle" speed="8.33" length="113.78" width="1.00" shape="2521.52,918.70 2520.85,920.40 2515.72,933.83 2509.81,945.76 2503.06,954.14 2488.20,967.17 2480.39,973.16 2470.54,977.21"/>
    </edge>
    <edge id="-1106637265#0" from="4316402663" to="cluster_10126513968_462574987" priority="1" type="highway.cycleway" shape="1152.03,1385.55 1140.89,1381.21">
        <lane id="-1106637265#0_0" index="0" allow="bicycle" speed="8.33" length="12.53" width="1.00" shape="1148.57,1384.74 1148.29,1384.63"/>
    </edge>
    <edge id="-1106637265#1" from="9306565167" to="4316402663" priority="1" type="highway.cycleway" shape="1313.58,1393.77 1296.15,1396.62 1275.89,1400.14 1250.08,1406.82 1233.80,1407.66 1222.46,1406.65 1210.68,1404.85 1201.23,1402.55 1192.03,1399.41 1171.35,1392.10 1152.03,1385.55">
        <lane id="-1106637265#1_0" index="0" allow="bicycle" speed="8.33" length="166.27" width="1.00" shape="1311.20,1394.66 1296.23,1397.11 1276.00,1400.63 1250.16,1407.32 1233.79,1408.16 1222.40,1407.14 1210.59,1405.34 1201.09,1403.03 1191.86,1399.88 1171.19,1392.58 1156.91,1387.73"/>
    </edge>
    <edge id="-1106637265#2" from="9419481405" to="9306565167" priority="1" type="highway.cycleway" shape="1478.19,1354.94 1358.68,1383.04 1321.06,1392.05 1313.58,1393.77">
        <lane id="-1106637265#2_0" index="0" allow="bicycle" speed="8.33" length="169.13" width="1.00" shape="1475.38,1356.11 1358.80,1383.53 1321.18,1392.54 1316.26,1393.67"/>
    </edge>
    <edge id="-1106637265#3" from="cluster_10126513949_4316435834" to="9419481405" priority="1" type="highway.cycleway" shape="1632.79,1313.51 1568.11,1333.23 1516.02,1346.90 1478.19,1354.94">
        <lane id="-1106637265#3_0" index="0" allow="bicycle" speed="8.33" length="160.32" width="1.00" shape="1624.23,1316.65 1568.24,1333.72 1516.14,1347.38 1481.04,1354.84"/>
    </edge>
    <edge id="-1106637265#4" from="cluster_10126513947_5187803716" to="cluster_10126513949_4316435834" priority="1" type="highway.cycleway" shape="1708.30,1277.63 1678.85,1294.22 1632.79,1313.51">
        <lane id="-1106637265#4_0" index="0" allow="bicycle" speed="8.33" length="85.96" width="1.00" shape="1702.32,1281.58 1679.07,1294.67 1639.03,1311.44"/>
    </edge>
    <edge id="-1106637265#5" from="9306565174" to="cluster_10126513947_5187803716" priority="1" type="highway.cycleway" shape="1764.69,1246.39 1708.30,1277.63">
        <lane id="-1106637265#5_0" index="0" allow="bicycle" speed="8.33" length="65.53" width="1.00" shape="1762.68,1248.07 1714.85,1274.58"/>
    </edge>
    <edge id="-1106637265#6" from="cluster_10126513945_5741866443" to="9306565174" priority="1" type="highway.cycleway" shape="1895.64,1170.96 1816.47,1217.58 1764.69,1246.39">
        <lane id="-1106637265#6_0" index="0" allow="bicycle" speed="8.33" length="152.41" width="1.00" shape="1891.34,1174.08 1816.72,1218.01 1767.19,1245.57"/>
    </edge>
    <edge id="-1106637265#7" from="10082831521" to="cluster_10126513945_5741866443" priority="1" type="highway.cycleway" shape="1945.49,1139.72 1895.64,1170.96">
        <lane id="-1106637265#7_0" index="0" allow="bicycle" speed="8.33" length="59.97" width="1.00" shape="1941.07,1143.08 1901.13,1168.11"/>
    </edge>
    <edge id="-1106637266#0" from="cluster_1056962172_9306565149" to="cluster_10126513968_462574987" priority="1" type="highway.cycleway" shape="1067.38,1357.15 1105.82,1369.90 1128.66,1377.04 1140.89,1381.21">
        <lane id="-1106637266#0_0" index="0" allow="bicycle" speed="8.33" length="77.36" width="1.00" shape="1074.82,1359.09 1105.97,1369.42 1128.81,1376.56 1132.03,1377.66"/>
    </edge>
    <edge id="-1106637266#1" from="cluster_10938940173_10938940174" to="cluster_1056962172_9306565149" priority="1" type="highway.cycleway" shape="1035.36,1345.62 1046.06,1349.60 1067.38,1357.15">
        <lane id="-1106637266#1_0" index="0" allow="bicycle" speed="8.33" length="34.25" width="1.00" shape="1040.51,1347.00 1046.23,1349.13 1060.91,1354.33"/>
    </edge>
    <edge id="-1106637266#2" from="cluster_10126513971_3094946578" to="cluster_10938940173_10938940174" priority="1" type="highway.cycleway" shape="897.39,1310.84 936.54,1317.69 982.49,1328.84 1015.74,1338.32 1035.36,1345.62">
        <lane id="-1106637266#2_0" index="0" allow="bicycle" speed="8.33" length="142.61" width="1.00" shape="904.96,1311.66 936.64,1317.20 982.62,1328.36 1015.89,1337.84 1031.28,1343.57"/>
    </edge>
    <edge id="-1106637266#3" from="321424941" to="cluster_10126513971_3094946578" priority="1" type="highway.cycleway" shape="847.85,1300.55 850.60,1303.32 897.39,1310.84">
        <lane id="-1106637266#3_0" index="0" allow="bicycle" speed="8.33" length="51.16" width="1.00" shape="851.88,1303.02 892.98,1309.62"/>
    </edge>
    <edge id="-1106637268" from="cluster_620782646_9306565136" to="10126513975" priority="1" type="highway.cycleway" shape="643.00,1281.73 641.18,1287.43 611.93,1300.51 510.84,1346.10 406.41,1393.54">
        <lane id="-1106637268_0" index="0" allow="bicycle" speed="8.33" length="261.53" width="1.00" shape="640.98,1288.07 612.13,1300.97 511.05,1346.55 406.61,1393.99"/>
    </edge>
    <edge id="-1148691173" from="10687220252" to="10687220251" priority="1" type="highway.service">
        <lane id="-1148691173_0" index="0" allow="pedestrian delivery bicycle" speed="5.56" length="31.52" shape="2907.80,2585.65 2912.68,2613.41"/>
    </edge>
    <edge id="-1154810061" from="cluster_10939514471_620528534" to="10739705131" priority="3" type="highway.residential" shape="1426.35,2093.63 1469.25,2116.77">
        <lane id="-1154810061_0" index="0" disallow="tram rail_urban rail rail_electric rail_fast ship" speed="13.89" length="49.18" shape="1433.92,2095.90 1470.01,2115.36"/>
    </edge>
    <edge id="-1161747678#0" from="10804975947" to="2587016202" priority="1" type="highway.service" shape="882.38,1682.96 886.59,1691.61 892.14,1700.92 898.41,1708.76 903.48,1710.39 909.92,1710.68 920.11,1710.68">
        <lane id="-1161747678#0_0" index="0" allow="pedestrian delivery bicycle" speed="5.56" length="52.46" shape="885.15,1685.00 888.00,1690.84 893.46,1700.01 899.36,1707.38 903.77,1708.80 909.96,1709.08 914.02,1709.08"/>
    </edge>
    <edge id="-1161747678#1" from="10804975951" to="10804975947" priority="1" type="highway.service" shape="869.00,1644.16 876.26,1665.70 882.38,1682.96">
        <lane id="-1161747678#1_0" index="0" allow="pedestrian delivery bicycle" speed="5.56" length="41.05" shape="872.12,1648.40 877.77,1665.18 881.46,1675.59"/>
    </edge>
    <edge id="-1161747678#2" from="8318013649" to="10804975951" priority="1" type="highway.service" shape="889.98,1632.76 869.96,1641.27 869.00,1644.16">
        <lane id="-1161747678#2_0" index="0" allow="pedestrian delivery bicycle" speed="5.56" length="24.80" shape="886.21,1636.10 871.64,1642.29"/>
    </edge>
    <edge id="-1168984156" from="10870726996" to="10870726993" priority="1" type="highway.service" shape="1378.38,2892.31 1378.98,2891.04 1380.36,2883.74 1383.40,2869.22">
        <lane id="-1168984156_0" index="0" allow="pedestrian delivery bicycle" speed="5.56" length="23.67" shape="1376.93,2891.62 1377.44,2890.54 1378.79,2883.43 1381.13,2872.22"/>
    </edge>
    <edge id="-1177161403" from="4701908212" to="10936212814" priority="1" type="highway.service" shape="989.57,2332.54 983.91,2334.19 973.92,2337.90 966.18,2340.29 957.67,2340.45 942.61,2336.19 932.29,2327.16">
        <lane id="-1177161403_0" index="0" allow="pedestrian delivery bicycle" speed="5.56" length="62.52" shape="980.62,2337.12 974.44,2339.42 966.43,2341.89 957.46,2342.06 941.82,2337.63 931.24,2328.36"/>
    </edge>
    <edge id="-1177161405" from="10936212840" to="10936212844" priority="1" type="highway.service" shape="1064.18,2781.57 1059.40,2780.24 1057.45,2778.32 1056.11,2773.05 1054.14,2767.05">
        <lane id="-1177161405_0" index="0" allow="pedestrian delivery bicycle" speed="5.56" length="19.21" shape="1056.73,2779.85 1056.01,2779.14 1054.57,2773.50 1054.15,2772.20"/>
    </edge>
    <edge id="-1177161406" from="10936212832" to="10936212840" priority="1" type="highway.service" shape="1063.47,2804.23 1059.12,2788.83 1060.00,2784.24 1064.18,2781.57">
        <lane id="-1177161406_0" index="0" allow="pedestrian delivery bicycle" speed="5.56" length="25.08" shape="1061.93,2804.67 1057.48,2788.90 1058.15,2785.37"/>
    </edge>
    <edge id="-1177161407" from="10936212835" to="10936212840" priority="1" type="highway.service" shape="1083.29,2797.38 1081.94,2788.35 1079.83,2782.13 1075.95,2780.07 1070.44,2780.82 1064.18,2781.57">
        <lane id="-1177161407_0" index="0" allow="pedestrian delivery bicycle" speed="5.56" length="31.97" shape="1081.70,2797.62 1080.37,2788.73 1078.52,2783.24 1075.66,2781.72 1070.64,2782.40 1066.58,2782.89"/>
    </edge>
    <edge id="-1177161408" from="10936212845" to="601481871" priority="1" type="highway.service" shape="1045.48,2753.15 1048.90,2745.15 1048.88,2734.48 1047.22,2725.15 1042.14,2719.68 1035.87,2714.21 1033.47,2708.74 1033.16,2698.81 1033.45,2688.93">
        <lane id="-1177161408_0" index="0" allow="pedestrian delivery bicycle" speed="5.56" length="70.43" shape="1044.01,2752.53 1047.30,2744.83 1047.28,2734.62 1045.73,2725.89 1041.03,2720.83 1034.55,2715.18 1031.88,2709.10 1031.56,2698.81 1031.70,2693.91"/>
    </edge>
    <edge id="-1177161409" from="10936212853" to="cluster_10936212859_616626400" priority="1" type="highway.service" shape="871.56,2731.76 877.15,2729.52 885.11,2722.48 889.35,2714.24 892.54,2705.58 895.28,2696.37 896.18,2693.35 897.48,2685.08">
        <lane id="-1177161409_0" index="0" allow="pedestrian delivery bicycle" speed="5.56" length="59.09" shape="870.96,2730.27 876.30,2728.14 883.82,2721.48 887.89,2713.60 891.02,2705.07 893.75,2695.91 894.61,2693.00 895.16,2689.55"/>
    </edge>
    <edge id="-1177167389" from="10936239880" to="10936239889" priority="1" type="highway.service" shape="930.75,2379.31 936.10,2368.34 940.85,2355.59 942.33,2349.07 936.81,2345.38 927.99,2339.47 925.60,2335.18 920.96,2329.26 897.68,2315.67 887.15,2309.57">
        <lane id="-1177167389_0" index="0" allow="pedestrian delivery bicycle" speed="5.56" length="101.31" shape="929.31,2378.61 934.63,2367.71 939.31,2355.13 940.52,2349.79 935.91,2346.71 926.78,2340.58 924.26,2336.07 919.89,2330.49 896.87,2317.06 890.59,2313.42"/>
    </edge>
    <edge id="-1177167390" from="10936239890" to="cluster_10936239892_620528547" priority="1" type="highway.service" shape="815.98,2158.50 835.65,2151.65 840.81,2149.17">
        <lane id="-1177167390_0" index="0" allow="pedestrian delivery bicycle" speed="5.56" length="29.75" shape="815.46,2156.99 835.04,2150.17 836.33,2149.55"/>
    </edge>
    <edge id="-1177167391" from="10936239898" to="10936239899" priority="1" type="highway.service">
        <lane id="-1177167391_0" index="0" allow="pedestrian delivery bicycle" speed="5.56" length="31.56" shape="923.42,2532.29 899.46,2520.03"/>
    </edge>
    <edge id="-1177167392#0" from="10936239899" to="10936239904" priority="1" type="highway.service" shape="896.06,2516.49 899.08,2510.28 901.83,2505.80">
        <lane id="-1177167392#0_0" index="0" allow="pedestrian delivery bicycle" speed="5.56" length="12.17" shape="896.65,2511.62 897.68,2509.51 898.67,2507.89"/>
    </edge>
    <edge id="-1177167392#1" from="10936239900" to="10936239899" priority="1" type="highway.service" shape="913.01,2556.81 893.44,2535.80 890.59,2530.62 890.74,2526.33 896.06,2516.49">
        <lane id="-1177167392#1_0" index="0" allow="pedestrian delivery bicycle" speed="5.56" length="50.10" shape="911.84,2557.90 892.13,2536.75 888.98,2531.01 889.15,2525.90 892.45,2519.80"/>
    </edge>
    <edge id="-1177167393" from="10936253120" to="10936253121" priority="1" type="highway.service" shape="1065.47,2667.79 1064.00,2680.39 1062.21,2692.58">