<?xml version="1.0" encoding="UTF-8"?>

<!-- generated on 2026-04-22 10:54:36 by Eclipse SUMO polyconvert Version 1.12.0
<configuration xmlns:xsi="http://www.w3.org/2001/XMLSchema-instance" xsi:noNamespaceSchemaLocation="http://sumo.dlr.de/xsd/polyconvertConfiguration.xsd">

    <input>
        <net-file value="map5.net.xml"/>
        <osm-files value="map5.osm"/>
    </input>

    <output>
        <output-file value="map5.poly.xml"/>
    </output>

    <processing>
        <poi-layer-offset value="5"/>
    </processing>

</configuration>
-->

<additional xmlns:xsi="http://www.w3.org/2001/XMLSchema-instance" xsi:noNamespaceSchemaLocation="http://sumo.dlr.de/xsd/additional_file.xsd">
    <location netOffset="-718230.73,322911.29" convBoundary="-3735.51,-1119.22,5775.81,4578.13" origBoundary="-79.070332,-2.929800,-78.984747,-2.878394" projParameter="+proj=utm +zone=17 +ellps=WGS84 +datum=WGS84 +units=m +no_defs"/>

    <poly id="1006014542" type="building" color="255,230,230" fill="1" layer="-1.00" shape="2119.578175,1111.894743 2132.232446,1105.435615 2126.820865,1094.960286 2114.155496,1101.430494 2119.578175,1111.894743"/>
    <poly id="1019277013" type="building" color="255,230,230" fill="1" layer="-1.00" shape="2823.094365,2433.332627 2888.973594,2410.112632 2899.578713,2427.137467 2896.835240,2428.956124 2892.447898,2431.861548 2870.611727,2440.316546 2847.394006,2447.258745 2833.567855,2451.397333 2829.400410,2452.875628 2823.094365,2433.332627"/>
    <poly id="1019916540" type="building" color="255,230,230" fill="1" layer="-1.00" shape="1395.159619,788.247391 1402.358605,784.430161 1397.929565,776.187232 1390.730599,780.015521 1395.159619,788.247391"/>
    <poly id="1021305301" type="building" color="255,230,230" fill="1" layer="-1.00" shape="575.809672,1186.121753 575.885843,1140.543933 592.943747,1140.569473 592.949574,1143.909541 595.974166,1143.904264 595.964719,1151.236969 600.768522,1151.250708 600.757082,1163.814732 604.104169,1163.819952 604.083011,1183.561844 598.767714,1183.560057 598.767978,1190.085375 587.570254,1190.071729 587.574525,1186.145471 575.809672,1186.121753"/>
    <poly id="1021305307" type="landuse" color="194,194,130" fill="0" layer="-3.00" shape="2971.719195,485.670175 2971.134471,481.999286 2955.731991,481.230184 2948.835167,479.837751 2944.097540,479.536442 2939.761460,479.931204 2886.306075,504.070092 2855.939052,517.528450 2833.032134,530.210483 2815.315944,541.600384 2798.719992,551.362482 2758.796989,587.787159 2674.915934,674.125670 2638.294297,716.185027 2573.892034,788.099977 2549.517466,819.851897 2536.573349,844.814959 2532.975530,853.990021 2530.914167,864.246253 2535.265727,878.948361 2544.594564,884.804776"/>
    <poly id="1021305308" type="landuse" color="194,194,130" fill="0" layer="-3.00" shape="2544.594564,884.804776 2577.395859,801.310481 2602.382961,776.403598 2638.457150,751.786836 2710.009977,730.580319 2763.821559,700.280551 2783.748474,681.354919 2802.078032,658.350960 2822.882387,594.752433 2843.083953,555.055610 2873.130537,523.857587 2955.503653,490.454633 2971.719195,485.670175"/>
    <poly id="1021305309" type="water" color="181,209,209" fill="0" layer="-4.00" shape="2542.265883,907.437598 2544.594564,884.804776"/>
    <poly id="1023065530" type="leisure" color="207,245,201" fill="1" layer="-2.00" shape="593.228010,1411.966928 568.903987,1370.910887 655.882772,1344.890207 679.609035,1381.103068 593.228010,1411.966928"/>
    <poly id="1023065530#1" type="sport" color="79,230,125" fill="1" layer="-2.00" shape="593.228010,1411.966928 568.903987,1370.910887 655.882772,1344.890207 679.609035,1381.103068 593.228010,1411.966928"/>
    <poly id="1023065531" type="tourism" color="207,245,201" fill="1" layer="-2.00" shape="1195.016251,1540.118170 1184.182374,1544.726957 1183.060670,1520.076406 1152.889642,1505.817617 1166.869024,1506.755403 1183.967686,1504.590966 1356.604947,1434.855081 1431.662738,1414.793809 1504.158575,1398.585812 1546.394817,1387.440890 1573.473200,1375.504060 1638.879137,1349.232782 1703.346866,1320.607330 1704.513545,1320.085469 1851.993589,1248.191699 1905.880188,1216.133935 1955.913666,1174.549219 1967.906766,1171.519862 1971.385400,1176.767229 1976.053384,1188.073358 1975.339078,1199.245157 1969.219272,1209.729667 1953.016848,1222.023584 1911.279554,1245.013027 1856.911216,1268.699258 1823.748603,1286.044103 1810.916756,1299.050969 1805.908014,1321.699438 1778.591549,1337.375016 1713.262581,1356.811221 1660.475666,1369.191292 1626.183386,1376.462436 1622.734569,1369.179987 1608.403143,1370.421681 1606.025477,1377.913413 1589.687624,1382.742033 1594.762674,1397.929478 1582.452568,1404.089292 1580.551997,1398.275101 1573.450289,1400.521641 1570.408099,1409.540803 1530.045448,1423.801347 1522.269388,1434.664738 1531.981373,1462.518731 1449.185250,1483.268248 1302.699435,1507.037815 1310.296751,1546.574750 1252.612925,1537.506921 1243.542060,1545.585442 1238.010115,1580.710293 1234.943006,1588.214264 1195.016251,1540.118170"/>
    <poly id="1025392997" type="building" color="255,230,230" fill="1" layer="-1.00" shape="2787.727088,761.964205 2799.825271,761.776960 2799.573933,745.375429 2791.968083,745.488389 2792.067716,751.538031 2787.575365,751.601257 2787.727088,761.964205"/>
    <poly id="1039180529" type="building" color="255,230,230" fill="1" layer="-1.00" shape="1282.915913,2921.611700 1299.615530,2920.056368 1297.685622,2897.364809 1281.887673,2899.460510 1282.915913,2921.611700"/>
    <poly id="1081356682" type="leisure" color="207,245,201" fill="1" layer="-2.00" shape="2858.617147,2043.803537 2867.274506,2034.531101 2868.872078,2032.415833 2873.975416,2025.649203 2877.952150,2016.904813 2877.823272,2000.525182 2829.122522,1902.254255 2820.274456,1891.596917 2805.586224,1886.048505 2793.577047,1886.323999 2781.717468,1889.463767 2764.465475,1899.392788 2757.061641,1906.926596 2752.382152,1914.422435 2749.766574,1925.730343 2749.856639,1939.013234 2798.311863,2036.831129 2811.434142,2049.825682 2819.144099,2051.957771 2830.832795,2052.810969 2838.381902,2052.001381 2858.617147,2043.803537"/>
    <poly id="1081356682#1" type="sport" color="79,230,125" fill="1" layer="-2.00" shape="2858.617147,2043.803537 2867.274506,2034.531101 2868.872078,2032.415833 2873.975416,2025.649203 2877.952150,2016.904813 2877.823272,2000.525182 2829.122522,1902.254255 2820.274456,1891.596917 2805.586224,1886.048505 2793.577047,1886.323999 2781.717468,1889.463767 2764.465475,1899.392788 2757.061641,1906.926596 2752.382152,1914.422435 2749.766574,1925.730343 2749.856639,1939.013234 2798.311863,2036.831129 2811.434142,2049.825682 2819.144099,2051.957771 2830.832795,2052.810969 2838.381902,2052.001381 2858.617147,2043.803537"/>
    <poly id="1081356683" type="leisure" color="207,245,201" fill="1" layer="-2.00" shape="2806.634433,2033.210945 2815.322542,2041.435373 2826.390381,2043.351420 2836.642764,2043.167501 2845.888552,2039.689471 2853.766049,2035.915226 2859.349630,2030.331173 2864.497993,2023.874144 2868.819079,2014.919009 2868.764583,2002.896887 2839.470214,1943.633626 2821.112431,1906.504317 2814.671775,1898.961664 2804.211875,1894.954217 2794.426799,1895.281100 2785.056859,1897.708651 2778.291240,1901.403522 2770.493830,1906.449526 2765.188063,1911.922488 2760.851993,1918.676705 2759.097595,1926.466022 2758.971229,1936.818396 2803.721744,2027.321087 2806.634433,2033.210945"/>
    <poly id="1081356683#1" type="sport" color="79,230,125" fill="1" layer="-2.00" shape="2806.634433,2033.210945 2815.322542,2041.435373 2826.390381,2043.351420 2836.642764,2043.167501 2845.888552,2039.689471 2853.766049,2035.915226 2859.349630,2030.331173 2864.497993,2023.874144 2868.819079,2014.919009 2868.764583,2002.896887 2839.470214,1943.633626 2821.112431,1906.504317 2814.671775,1898.961664 2804.211875,1894.954217 2794.426799,1895.281100 2785.056859,1897.708651 2778.291240,1901.403522 2770.493830,1906.449526 2765.188063,1911.922488 2760.851993,1918.676705 2759.097595,1926.466022 2758.971229,1936.818396 2803.721744,2027.321087 2806.634433,2033.210945"/>
    <poly id="1081356684" type="leisure" color="207,245,201" fill="1" layer="-2.00" shape="2806.634433,2033.210945 2868.764583,2002.896887 2839.470214,1943.633626 2821.112431,1906.504317 2758.971229,1936.818396 2803.721744,2027.321087 2806.634433,2033.210945"/>
    <poly id="1081356684#1" type="sport" color="79,230,125" fill="1" layer="-2.00" shape="2806.634433,2033.210945 2868.764583,2002.896887 2839.470214,1943.633626 2821.112431,1906.504317 2758.971229,1936.818396 2803.721744,2027.321087 2806.634433,2033.210945"/>
    <poly id="1081358932" type="amenity" color="237,199,199" fill="1" layer="-1.00" shape="2846.288908,2660.309378 2847.335438,2661.015382 2848.093390,2662.031572 2848.462468,2663.236464 2848.420219,2664.508438 2847.944111,2665.681633 2847.111773,2666.634252 2846.011989,2667.266601 2844.755807,2667.490005 2843.498887,2667.293130 2842.441508,2666.741985 2841.594867,2665.880791 2841.070322,2664.797831 2840.923685,2663.614669 2841.144030,2662.441923 2841.731552,2661.390193 2842.619743,2660.581255 2843.786460,2660.070449 2845.053995,2659.979745 2846.288908,2660.309378"/>
    <poly id="1081358932#1" type="water" color="181,209,209" fill="1" layer="-4.00" shape="2846.288908,2660.309378 2847.335438,2661.015382 2848.093390,2662.031572 2848.462468,2663.236464 2848.420219,2664.508438 2847.944111,2665.681633 2847.111773,2666.634252 2846.011989,2667.266601 2844.755807,2667.490005 2843.498887,2667.293130 2842.441508,2666.741985 2841.594867,2665.880791 2841.070322,2664.797831 2840.923685,2663.614669 2841.144030,2662.441923 2841.731552,2661.390193 2842.619743,2660.581255 2843.786460,2660.070449 2845.053995,2659.979745 2846.288908,2660.309378"/>
    <poly id="1083557187" type="amenity" color="237,199,199" fill="1" layer="-1.00" shape="2895.157519,1778.144469 2892.057864,1773.438363 2886.438138,1764.788271 2882.557844,1758.811639 2896.174909,1749.652119 2913.156789,1769.497057 2895.157519,1778.144469"/>
    <poly id="1083557187#1" type="building" color="255,230,230" fill="1" layer="-1.00" shape="2895.157519,1778.144469 2892.057864,1773.438363 2886.438138,1764.788271 2882.557844,1758.811639 2896.174909,1749.652119 2913.156789,1769.497057 2895.157519,1778.144469"/>
    <poly id="108536194" type="building" color="255,230,230" fill="1" layer="-1.00" shape="2941.691786,2060.811547 2950.178789,2055.841742 2952.442849,2059.642402 2954.662312,2063.376780 2961.460799,2059.394284 2956.363825,2050.809625 2953.285590,2045.638956 2957.717938,2043.043121 2949.397761,2029.055789 2944.732146,2031.795814 2932.329958,2010.947400 2920.177119,2018.069291 2917.288884,2019.766550 2921.504745,2026.859658 2941.691786,2060.811547"/>
    <poly id="108536195" type="building" color="255,230,230" fill="1" layer="-1.00" shape="2905.363931,2036.333278 2914.498275,2051.690619 2925.550966,2070.285168 2941.691786,2060.811547 2921.504745,2026.859658 2905.363931,2036.333278"/>
    <poly id="108536197" type="building" color="255,230,230" fill="1" layer="-1.00" shape="2834.115182,1876.818545 2858.263564,1905.941291 2886.256967,1883.042103 2862.108576,1853.919360 2850.482601,1863.429286 2834.115182,1876.818545"/>
    <poly id="108574197" type="leisure" color="207,245,201" fill="1" layer="-2.00" shape="2907.709555,2080.204175 2918.396598,2074.246166 2908.111872,2056.037367 2897.424832,2061.995375 2907.709555,2080.204175"/>
    <poly id="108574199" type="parking" color="184,184,179" fill="1" layer="-1.00" shape="2855.110388,2161.786688 2869.028399,2152.991654 2854.833571,2130.819183 2840.915583,2139.625277 2855.110388,2161.786688"/>
    <poly id="108574201" type="leisure" color="207,245,201" fill="1" layer="-2.00" shape="2891.156508,1943.763942 2871.320569,1919.754388 2856.640914,1931.736059 2876.487949,1955.734536 2891.156508,1943.763942"/>
    <poly id="108574201#1" type="sport" color="79,230,125" fill="1" layer="-2.00" shape="2891.156508,1943.763942 2871.320569,1919.754388 2856.640914,1931.736059 2876.487949,1955.734536 2891.156508,1943.763942"/>
    <poly id="108574216" type="building" color="255,230,230" fill="1" layer="-1.00" shape="2808.767238,2139.515861 2827.718351,2128.278790 2838.549298,2121.944501 2828.310994,2104.830559 2798.785438,2122.821747 2808.767238,2139.515861"/>
    <poly id="108574229" type="building" color="255,230,230" fill="1" layer="-1.00" shape="2948.293787,2179.097725 2929.282070,2143.208257 2927.262108,2139.097487 2915.997806,2145.620568 2920.059366,2153.499209 2921.472331,2160.232266 2895.622091,2175.142338 2909.787223,2199.394144 2919.851829,2193.592076 2931.027772,2212.717297 2961.188273,2195.333264 2959.437135,2192.328021 2966.491257,2188.267660 2959.832499,2176.854382 2955.355627,2179.428172 2953.426063,2176.135683 2948.293787,2179.097725"/>
    <poly id="108574232" type="building" color="255,230,230" fill="1" layer="-1.00" shape="2854.523970,2106.509854 2861.662898,2119.072525 2876.538024,2110.729264 2874.552494,2107.226735 2879.173904,2104.641632 2881.137078,2108.077842 2911.787193,2090.903087 2903.164644,2075.699684 2872.303467,2092.996470 2875.036334,2097.802766 2870.681553,2100.243619 2867.982143,2095.492565 2862.938600,2098.321728 2864.444451,2100.962421 2854.523970,2106.509854"/>
    <poly id="108574232#1" type="leisure" color="207,245,201" fill="1" layer="-2.00" shape="2854.523970,2106.509854 2861.662898,2119.072525 2876.538024,2110.729264 2874.552494,2107.226735 2879.173904,2104.641632 2881.137078,2108.077842 2911.787193,2090.903087 2903.164644,2075.699684 2872.303467,2092.996470 2875.036334,2097.802766 2870.681553,2100.243619 2867.982143,2095.492565 2862.938600,2098.321728 2864.444451,2100.962421 2854.523970,2106.509854"/>
    <poly id="108574233" type="building" color="255,230,230" fill="1" layer="-1.00" shape="2905.451112,1984.727164 2912.700423,1984.172476 2922.028910,1983.459291 2921.038943,1970.653551 2920.799976,1967.557171 2904.222161,1968.813985 2905.451112,1984.727164"/>
    <poly id="109089287" type="leisure" color="207,245,201" fill="1" layer="-2.00" shape="3006.088785,2029.542261 2975.673550,2047.479786 2967.375161,2052.205941 2963.926921,2057.952147 2961.460799,2059.394284 2956.363825,2050.809625 2953.285590,2045.638956 2957.717938,2043.043121 2949.397761,2029.055789 2944.732146,2031.795814 2932.329958,2010.947400 2920.177119,2018.069291 2917.288884,2019.766550 2915.812773,2015.068645 2913.224101,1991.084056 2909.876989,1991.101002 2909.133206,1985.494889 2916.861029,1985.138440 2918.088269,2000.078343 2929.975806,2000.179098 2931.376683,2006.359176 2960.374095,2004.228898 2974.883669,2003.019957 2996.064551,2001.390059 3006.088785,2029.542261"/>
    <poly id="109089316" type="parking" color="184,184,179" fill="1" layer="-1.00" shape="2825.642425,1877.231604 2812.689862,1859.569448 2837.127664,1838.280221 2854.020727,1858.213804 2825.642425,1877.231604"/>
    <poly id="109089335" type="parking" color="184,184,179" fill="1" layer="-1.00" shape="2886.747494,1883.749080 2904.110238,1905.174941 2899.934962,1908.511344 2892.379163,1899.189994 2860.442734,1924.706275 2850.646934,1912.612803 2886.747494,1883.749080"/>
    <poly id="109089340" type="building" color="255,230,230" fill="1" layer="-1.00" shape="2801.947952,1878.578346 2801.370407,1872.651205 2808.294424,1864.178134 2820.321243,1880.260339 2801.947952,1878.578346"/>
    <poly id="109089358" type="leisure" color="207,245,201" fill="1" layer="-2.00" shape="2879.149814,2034.001465 2888.269217,2028.212113 2902.341151,2050.052992 2893.221765,2055.853404 2879.149814,2034.001465"/>
    <poly id="109178480" type="building" color="255,230,230" fill="1" layer="-1.00" shape="2546.298114,2315.819295 2549.890013,2328.565150 2567.073264,2323.779223 2563.481363,2311.033367 2546.298114,2315.819295"/>
    <poly id="109187477" type="building" color="255,230,230" fill="1" layer="-1.00" shape="2485.041741,2438.703482 2494.253770,2434.982245 2486.282281,2416.868919 2478.593041,2420.211449 2480.524486,2424.587813 2479.435264,2424.899401 2485.041741,2438.703482"/>
    <poly id="109387089" type="building" color="255,230,230" fill="1" layer="-1.00" shape="1598.431043,661.531268 1581.856993,671.105073 1591.958921,686.670774 1609.335698,678.290032 1598.431043,661.531268"/>
    <poly id="109387089#1" type="leisure" color="207,245,201" fill="1" layer="-2.00" shape="1598.431043,661.531268 1581.856993,671.105073 1591.958921,686.670774 1609.335698,678.290032 1598.431043,661.531268"/>
    <poly id="109387355" type="leisure" color="207,245,201" fill="1" layer="-2.00" shape="1941.828818,2096.840426 1893.857458,2078.011881 1858.960722,2165.789299 1906.909832,2184.606856 1941.828818,2096.840426"/>
    <poly id="109387355#1" type="sport" color="79,230,125" fill="1" layer="-2.00" shape="1941.828818,2096.840426 1893.857458,2078.011881 1858.960722,2165.789299 1906.909832,2184.606856 1941.828818,2096.840426"/>
    <poly id="1094376697" type="building" color="255,230,230" fill="1" layer="-1.00" shape="1961.747618,2505.315596 1974.086574,2502.849778 1978.405159,2524.221098 1966.066181,2526.675855 1961.747618,2505.315596"/>
    <poly id="1094376699" type="building" color="255,230,230" fill="1" layer="-1.00" shape="1997.354329,2518.193481 2010.812311,2513.380995 2012.365499,2517.669538 2024.445468,2513.357157 2018.199144,2496.081384 1992.661196,2505.206252 1997.354329,2518.193481"/>
    <poly id="1094376700" type="building" color="255,230,230" fill="1" layer="-1.00" shape="1942.118352,2510.326882 1945.184474,2521.326164 1958.244300,2517.753095 1961.209783,2528.431815 1928.643606,2537.358808 1922.612006,2515.680808 1942.118352,2510.326882"/>
    <poly id="1094376701" type="building" color="255,230,230" fill="1" layer="-1.00" shape="2028.315957,2596.443763 2034.342554,2596.167789 2034.897448,2608.255340 2037.265843,2608.151661 2037.404407,2611.082304 2030.499384,2611.392993 2029.414164,2613.993978 2024.821935,2614.201084 2024.521562,2607.764721 2028.824689,2607.569180 2028.315957,2596.443763"/>
    <poly id="1094376702" type="building" color="255,230,230" fill="1" layer="-1.00" shape="2010.865648,2613.860501 2023.169461,2610.366172 2023.097579,2607.413292 2024.774442,2606.116347 2022.447322,2598.024535 2007.520478,2602.264466 2010.865648,2613.860501"/>
    <poly id="1094376703" type="building" color="255,230,230" fill="1" layer="-1.00" shape="2008.343893,2615.291642 2003.521734,2598.466835 1989.139482,2602.539913 1992.294605,2613.561162 1990.605190,2614.039693 1992.272224,2619.843249 2008.343893,2615.291642"/>
    <poly id="1094376704" type="building" color="255,230,230" fill="1" layer="-1.00" shape="1988.236613,2601.313837 2000.040834,2598.284900 1996.503066,2584.654173 1986.843931,2587.060004 1984.687592,2587.605711 1988.236613,2601.313837"/>
    <poly id="1094376705" type="building" color="255,230,230" fill="1" layer="-1.00" shape="1986.843931,2587.060004 1996.503066,2584.654173 2000.371156,2583.685197 1998.310802,2575.526559 1995.965500,2576.116836 1984.783578,2578.901367 1986.843931,2587.060004"/>
    <poly id="1094376706" type="building" color="255,230,230" fill="1" layer="-1.00" shape="2000.345134,2568.798557 2004.924655,2567.684557 2005.697447,2570.835291 2015.367798,2568.484737 2009.230360,2543.522111 2001.327362,2545.449298 2002.290587,2549.396014 1992.698041,2551.724312 1993.280420,2554.090121 1983.676753,2556.418437 1986.387133,2567.473643 1999.247598,2564.354378 2000.345134,2568.798557"/>
    <poly id="1094376707" type="building" color="255,230,230" fill="1" layer="-1.00" shape="1977.673617,2557.391146 1991.756047,2553.561909 1989.081442,2543.889134 1975.010153,2547.729412 1977.673617,2557.391146"/>
    <poly id="1094376711" type="building" color="255,230,230" fill="1" layer="-1.00" shape="2037.588702,2576.563889 2024.827347,2579.129987 2022.169121,2566.106018 2021.057505,2566.329161 2019.812546,2560.248367 2026.371085,2558.931827 2026.090706,2557.571944 2033.416256,2556.099223 2037.588702,2576.563889"/>
    <poly id="1094376712" type="building" color="255,230,230" fill="1" layer="-1.00" shape="2019.943918,2559.064723 2027.868886,2556.982658 2026.693548,2552.560735 2031.017288,2551.436120 2028.778488,2542.979176 2030.912568,2542.422447 2028.763366,2534.330325 2016.125632,2537.637225 2017.939066,2544.491220 2016.194014,2544.947729 2019.943918,2559.064723"/>
    <poly id="1094376714" type="building" color="255,230,230" fill="1" layer="-1.00" shape="2046.554972,2572.201653 2054.869782,2570.483883 2052.470060,2559.029974 2051.236180,2559.286510 2050.585823,2556.201922 2047.717878,2556.793114 2048.345822,2559.778202 2044.143957,2560.648224 2046.554972,2572.201653"/>
    <poly id="1094376715" type="building" color="255,230,230" fill="1" layer="-1.00" shape="2044.280991,2581.783543 2067.619360,2580.260704 2069.241317,2604.799894 2045.902943,2606.322730 2044.280991,2581.783543"/>
    <poly id="1094376716" type="building" color="255,230,230" fill="1" layer="-1.00" shape="2035.147287,2560.343216 2040.838618,2559.116671 2039.863324,2554.628038 2043.887268,2553.758326 2043.438870,2551.701960 2052.353792,2549.773001 2053.676516,2555.809420 2060.423864,2554.359828 2058.596774,2546.057002 2059.919555,2545.767130 2054.157749,2519.410291 2027.446310,2525.174992 2028.993232,2532.239593 2030.383216,2538.585572 2035.147287,2560.343216"/>
    <poly id="1094376717" type="building" color="255,230,230" fill="1" layer="-1.00" shape="1944.722137,2479.487216 1955.288673,2480.906536 1963.519561,2475.716093 1969.442590,2467.090043 1964.063886,2456.316003 1960.597204,2457.903636 1958.134400,2454.888578 1947.291063,2460.514925 1945.281547,2468.713855 1942.683715,2471.151583 1944.722137,2479.487216"/>
    <poly id="1094376718" type="building" color="255,230,230" fill="1" layer="-1.00" shape="2073.078410,2573.382931 2073.967699,2541.407064 2102.581024,2542.197577 2102.256227,2553.589894 2083.484635,2553.069727 2083.202266,2563.289614 2091.242460,2563.507812 2090.960342,2573.871478 2073.078410,2573.382931"/>
    <poly id="1094376719" type="building" color="255,230,230" fill="1" layer="-1.00" shape="2085.888721,2528.866353 2085.519695,2540.402525 2075.978162,2540.109534 2076.347170,2528.562302 2085.888721,2528.866353"/>
    <poly id="1097346129" type="building" color="255,230,230" fill="1" layer="-1.00" shape="2929.472085,1739.141820 2927.117600,1740.827084 2934.073329,1750.381744 2924.455500,1757.277992 2908.013651,1734.678165 2919.974823,1726.085613 2929.472085,1739.141820"/>
    <poly id="1097346130" type="building" color="255,230,230" fill="1" layer="-1.00" shape="2915.411358,1692.084141 2917.426665,1699.866834 2909.312696,1701.949336 2911.115243,1708.891844 2917.550869,1707.254697 2919.275089,1713.920843 2903.880741,1717.852117 2899.603796,1701.324944 2905.205791,1699.899404 2903.940626,1695.013111 2915.411358,1692.084141"/>
    <poly id="1097346131" type="building" color="255,230,230" fill="1" layer="-1.00" shape="2923.206997,1686.042718 2917.853614,1689.724062 2916.036439,1687.106040 2906.029377,1693.980854 2900.444100,1685.950064 2908.929548,1680.117568 2910.323093,1682.128036 2917.198106,1677.415434 2923.206997,1686.042718"/>
    <poly id="1097357827" type="building" color="255,230,230" fill="1" layer="-1.00" shape="2891.063437,1846.590950 2903.744825,1868.124582 2894.338438,1875.119989 2886.772201,1866.185758 2889.847838,1863.559128 2882.007446,1850.488940 2891.063437,1846.590950"/>
    <poly id="1097357828" type="building" color="255,230,230" fill="1" layer="-1.00" shape="2902.533027,1836.683133 2908.520222,1832.978560 2914.969875,1845.630914 2909.281968,1848.793021 2902.533027,1836.683133"/>
    <poly id="1097357829" type="building" color="255,230,230" fill="1" layer="-1.00" shape="2845.008471,1836.397221 2868.540493,1818.560293 2884.380741,1840.530766 2870.968316,1852.244778 2869.799391,1851.494754 2860.082091,1839.777188 2852.107778,1845.398632 2845.008471,1836.397221"/>
    <poly id="1098674804" type="building" color="255,230,230" fill="1" layer="-1.00" shape="2457.071730,955.576869 2466.034734,962.075414 2469.308334,958.220779 2466.625825,956.743465 2474.062617,949.032629 2480.045484,955.536420 2483.606624,950.785420 2469.880126,941.928428 2457.071730,955.576869"/>
    <poly id="1104968107" type="building" color="255,230,230" fill="1" layer="-1.00" shape="2784.648260,1197.965689 2799.071641,1192.078480 2787.044134,1162.978706 2772.609657,1168.876995 2784.648260,1197.965689"/>
    <poly id="1112406213" type="building" color="255,230,230" fill="1" layer="-1.00" shape="2911.854443,2268.371732 2920.428108,2268.411968 2923.750107,2273.084511 2910.151430,2280.098324 2889.879004,2267.160560 2900.083753,2252.510253 2905.237705,2255.553757 2902.254783,2260.325858 2911.854443,2268.371732"/>
    <poly id="1112406217" type="building" color="255,230,230" fill="1" layer="-1.00" shape="2805.789517,2235.875758 2813.672422,2241.502510 2811.464096,2244.105487 2815.082698,2246.709290 2817.302105,2244.084174 2818.782938,2245.143332 2829.247404,2239.075135 2815.162274,2228.703480 2805.789517,2235.875758"/>
    <poly id="1112406225" type="building" color="255,230,230" fill="1" layer="-1.00" shape="2796.284600,2256.441918 2793.614515,2249.390332 2800.482222,2246.823412 2801.800487,2250.293935 2813.257766,2246.004656 2816.654016,2254.968346 2807.819360,2258.279740 2810.366523,2264.988683 2800.865090,2268.544567 2796.284600,2256.441918"/>
    <poly id="1112406226" type="building" color="255,230,230" fill="1" layer="-1.00" shape="2794.958896,2236.071739 2792.044267,2229.075882 2785.654841,2231.708322 2790.467764,2243.191202 2804.790538,2236.917152 2799.258822,2234.051269 2794.958896,2236.071739"/>
    <poly id="1112406227" type="building" color="255,230,230" fill="1" layer="-1.00" shape="2841.449893,2285.527804 2833.599500,2285.751731 2833.407428,2284.026709 2833.340543,2277.600969 2837.092207,2273.657022 2841.134694,2277.012161 2841.216478,2279.257196 2841.449893,2285.527804"/>
    <poly id="1112408366" type="building" color="255,230,230" fill="1" layer="-1.00" shape="2933.520181,2352.809954 2914.784194,2359.932326 2921.674710,2376.676123 2940.998957,2368.922298 2933.520181,2352.809954"/>
    <poly id="1112408367" type="building" color="255,230,230" fill="1" layer="-1.00" shape="2914.784194,2359.932326 2900.805052,2365.597478 2907.912489,2379.221975 2921.674710,2376.676123 2914.784194,2359.932326"/>
    <poly id="1112408368" type="building" color="255,230,230" fill="1" layer="-1.00" shape="2900.805052,2365.597478 2893.014020,2367.966942 2900.309467,2381.004928 2907.912489,2379.221975 2900.805052,2365.597478"/>
    <poly id="1112408369" type="building" color="255,230,230" fill="1" layer="-1.00" shape="2893.014020,2367.966942 2876.297689,2372.696798 2876.531043,2391.597924 2893.169439,2386.812906 2899.787241,2400.239183 2909.746671,2397.854853 2900.309467,2381.004928 2893.014020,2367.966942"/>
    <poly id="1112408370" type="building" color="255,230,230" fill="1" layer="-1.00" shape="2876.531043,2391.597924 2878.042057,2409.844267 2899.787241,2400.239183 2893.169439,2386.812906 2876.531043,2391.597924"/>
    <poly id="1115570253" type="building" color="255,230,230" fill="1" layer="-1.00" shape="2942.425722,1485.833889 2926.394082,1494.101830 2916.999372,1476.134813 2933.031008,1467.866873 2935.385276,1472.375207 2942.425722,1485.833889"/>
    <poly id="1116392222" type="leisure" color="207,245,201" fill="1" layer="-2.00" shape="692.401150,1243.307984 740.529301,1237.705120 739.352495,1200.568128 652.682991,1187.104686 678.642477,1209.499858 692.401150,1243.307984"/>
    <poly id="1116392223" type="building" color="255,230,230" fill="1" layer="-1.00" shape="766.423134,1133.298968 821.410410,1120.296067 809.272668,1085.047324 753.592212,1089.524278 766.423134,1133.298968"/>
    <poly id="1116392223#1" type="shop" color="237,199,255" fill="1" layer="-1.00" shape="766.423134,1133.298968 821.410410,1120.296067 809.272668,1085.047324 753.592212,1089.524278 766.423134,1133.298968"/>
    <poly id="1121019044" type="building" color="255,230,230" fill="1" layer="-1.00" shape="762.765551,662.862605 838.475982,634.881420 871.058974,680.457480 788.497141,707.554800 762.765551,662.862605"/>
    <poly id="1122661785" type="building" color="255,230,230" fill="1" layer="-1.00" shape="2829.523602,2219.056059 2841.382197,2227.993824 2847.984543,2219.963729 2835.847520,2210.783134 2829.523602,2219.056059"/>
    <poly id="1122661786" type="building" color="255,230,230" fill="1" layer="-1.00" shape="2841.304687,2228.181981 2848.120263,2233.921206 2856.187990,2224.483916 2849.372394,2218.733631 2848.096210,2220.228973 2841.304687,2228.181981"/>
    <poly id="1122661787" type="building" color="255,230,230" fill="1" layer="-1.00" shape="2848.899250,2234.251637 2856.692771,2239.635225 2867.554450,2231.796726 2858.144576,2224.170799 2848.899250,2234.251637"/>
    <poly id="1122661788" type="building" color="255,230,230" fill="1" layer="-1.00" shape="2856.692771,2239.635225 2865.935475,2247.051307 2874.480355,2237.038057 2888.289514,2223.244098 2885.227845,2221.170197 2867.554450,2231.796726 2856.692771,2239.635225"/>
    <poly id="1122671933" type="building" color="255,230,230" fill="1" layer="-1.00" shape="2034.722668,1923.788711 2045.883720,1928.171017 2048.007130,1921.531328 2052.167353,1909.601415 2053.664710,1901.060511 2043.684277,1897.760013 2034.722668,1923.788711"/>
    <poly id="1133547245" type="building" color="255,230,230" fill="1" layer="-1.00" shape="2722.833600,1464.023108 2716.649632,1456.999838 2729.540288,1445.817621 2735.713156,1452.851970 2722.833600,1464.023108"/>
    <poly id="1148690035" type="building" color="255,230,230" fill="0" layer="-1.00" shape="2314.407337,2942.573604 2320.729193,2939.432580 2336.728695,2931.728988 2348.812849,2948.850800"/>
    <poly id="1148690036" type="parking" color="184,184,179" fill="1" layer="-1.00" shape="2432.861591,2925.046515 2418.979369,2928.941792 2409.368286,2907.988905 2372.942948,2923.094179 2362.561130,2906.522389 2417.170815,2886.751174 2432.861591,2925.046515"/>