<?xml version="1.0" encoding="UTF-8"?>

<!-- generated on 2026-04-22 14:53:53 by Eclipse SUMO duarouter Version 1.12.0
<configuration xmlns:xsi="http://www.w3.org/2001/XMLSchema-instance" xsi:noNamespaceSchemaLocation="http://sumo.dlr.de/xsd/duarouterConfiguration.xsd">

    <input>
        <net-file value="map5.net.xml"/>
        <route-files value="trafico_hora_pico.trips.xml"/>
    </input>

    <output>
        <output-file value="trafico_hora_pico.rou.xml"/>
        <alternatives-output value="trafico_hora_pico.rou.alt.xml"/>
    </output>

    <time>
        <begin value="0"/>
        <end value="3600"/>
    </time>

    <report>
        <no-warnings value="true"/>
        <ignore-errors value="true"/>
        <no-step-log value="true"/>
    </report>

</configuration>
-->

<routes xmlns:xsi="http://www.w3.org/2001/XMLSchema-instance" xsi:noNamespaceSchemaLocation="http://sumo.dlr.de/xsd/routes_file.xsd">
    <vehicle id="0" type="trafico_hora_pico" depart="1.00">
        <route edges="527997818#4 542393522 893239412 893239411#0 542393520#1 474831745#1 893240789#0 893240789#1 400679084#0 400679084#1 400679084#3 400679084#4 400679084#5 400679084#6 400679084#7 400679084#8 400679084#9 400679084#10 400679084#11 400679084#12 402511536 473373906#1 473373906#2 473373906#3 473373906#4 473373906#7 42141324#1 42141324#2 42141324#3 46227736 42143236 611330745 48903207"/>
    </vehicle>
    <vehicle id="1" type="trafico_hora_pico" depart="2.00">
        <route edges="45393775#3 45393781#3 45393773#3 45393773#4 45393773#5 400014712 402499842#0 402499842#1 402499842#3 402499842#4 320862698#2 320862698#3 1053146630 400679084#8 400679084#9 400679084#10 400679084#11 400679084#12 402511536 473373906#1 553308440#0 553308440#1 -48903023#3 -48903023#2 -48903023#1 -48903023#0 48903022 402431111#1 402431111#2 48903026#2 48903026#3 48903026#4 492798730 492798729 492798727 641240400#0 641240400#1 641240400#2 641240400#3 404412746 475312979#1 404961938#0 404961938#1 404961938#2 404961938#3 404961938#4"/>
    </vehicle>
    <vehicle id="2" type="trafico_hora_pico" depart="4.00">
        <route edges="61426872#2 -61426872#2 -61426872#1 -61426872#0 61426864#0 61426864#1 46227740#1 45424969#0 45424969#1 403003676 52763077 61390459 50367491#4 50367491#5 50367491#6 61390453 -45393818 542537653 50367490#0 50367490#1 50367490#2 894341925 894340618 894340617#0 894340617#1 611330746 42207961 42141324#5 42141324#6 42141324#1 48903026#0 48903026#1 48903026#2 48903026#3 48903026#4 492798730 492798729 492798727 641240400#0 641240400#1 641240400#2 65157427#0 65157427#1 65157427#2 65157427#3 65157427#5 952365290#0 952365290#2 952365290#3 952365290#4 65157430#0 65157430#1 65157430#2 65157430#3 314641203 897190043#1 897190043#2 897190043#3 897190043#4 897190043#5 314641202#0 314641202#1 314641202#2 314641202#3"/>
    </vehicle>
    <vehicle id="3" type="trafico_hora_pico" depart="6.00">
        <route edges="893239410#1 893239411#0 542393520#1 474831745#1 893240789#0 893240789#1 400679084#0 400679084#1 400679084#3 400679084#4 400679084#5 400679084#6 400679084#7 400679084#8 400679084#9 400679084#10 400679084#11 400679084#12 402511536 473373906#1 473373906#2 473373906#3 473373906#4 473373906#7 42141324#1 42141324#2 42141324#3 46227736 -611330743 -402394678#2 -402394678#0 403123670#0 403123670#1 48102262#2 48102262#3 48102262#4 48102262#5 48102262#6 48102262#7 48102262#8 48102262#10 29223185#2 529883376#0 529883376#1 529883376#2 242069339#0 242069339#1 -242069339#1 -242069339#0"/>
    </vehicle>
    <vehicle id="4" type="trafico_hora_pico" depart="6.00">
        <route edges="81508885#2 258854962#0 258854962#1 258854962#2 258854962#3 893216952#0 893216952#1 893216952#2 61390458#0 61390458#1 61390458#2 -775434265 509965323 301927574 46227740#6 46227740#1 45424969#0 45424969#1 403003676 52763077 61390459 50367491#4 50367491#5 50367491#6 61390453 -45393818 45393804#0 45393804#1 320862699 320862698#0 320862698#1 320862698#2 320862698#3 1053146630 895023609 553308455 893427498#0"/>
    </vehicle>
    <vehicle id="5" type="trafico_hora_pico" depart="8.00">
        <route edges="-45393764#2 527997818#3 527997818#4 542393522 893239412 893239411#0 542393520#1 474831745#1 893240789#0 893240789#1 893240788 397470313 397470315 397470316 893243544 397470322 952380266#0"/>
    </vehicle>
    <vehicle id="6" type="trafico_hora_pico" depart="10.00">
        <route edges="403181057#0 403181057#1 47198295#0 47198295#1 -534903493#3 -534903493#2 -534903493#1 403681872 81508885#0 81508885#1 81508885#2 258854962#0 258854962#1 258854962#2 258854962#3 893216952#0 893216952#1 893216952#2 61390458#0 -61426880#8 -61426880#7 1180131815"/>
    </vehicle>
    <vehicle id="7" type="trafico_hora_pico" depart="10.00">
        <route edges="47198291#0 47198291#1 61426872#0 61426872#1 61426872#2 61426872#3 61426885#1 61426885#2 61426885#3 -61426880#1 -61426880#0 -86134858#3 -86134858#2"/>
    </vehicle>
    <vehicle id="8" type="trafico_hora_pico" depart="11.00">
        <route edges="751431204#2 542542874 403000152#0 403000152#1 403000152#2 403000152#3 542537659#3 542537659#4 542537659#5 542537659#6 542537659#7 542537659#8 542537659#9 542537659#10 1101837198 52763077 61390459 50367491#4 101460268 552259399 101460267#0 101460267#2 894137679#0 894137679#1 894137679#2 101459744 45393773#0 45393773#1 400449634#4 45393787#0 45393787#1 45393787#2"/>
    </vehicle>
    <vehicle id="9" type="trafico_hora_pico" depart="12.00">
        <route edges="535363736#2 48903036#0 48903036#1 -402686085#0 -402431111#1 -48903022 48903023#0 48903023#1 48903023#2 48903023#3 48903044 553308443#6 553308443#7 893427500#0 893427500#1 48903077 893427501#0 893427501#1 893427501#2 893245579#0 893245579#1 893245579#2 42140284#7 42140284#8 42140284#1 50370776#0 50370776#1 -397464997#5 -397464997#4 397464997#4"/>
    </vehicle>
    <vehicle id="10" type="trafico_hora_pico" depart="13.00">
        <route edges="453516157#0 453516157#1 453516157#2 453516157#3 453516157#4 453516157#5 403002809#0 403002809#1 -61426887#7 403000151#0 403000151#1 542542874 403000152#0 -81508877#5 -81508877#4 -81508886#1 -81508886#0 -542537659#0 81508880#0 81508880#0-AddedOffRampEdge 432676627#0 432676627#1 46227734#2 46227734#3 46227734#4 402394678#0 402394678#2 611330743 42207961 42141324#5 553308443#0 553308443#1 553308443#2 553308443#3 553308443#4 553308443#5 553308443#6 48903014#0 48903014#1 48903014#2 48903014#4 48903014#5 48903014#7 48903014#9 48903014#10 65089047#0 65089047#1 65089047#2 662266021#0 662266021#1 662266021#2 662266021#3 558903818#1 558903818#2 558903818#4 558903818#5 558903816 65089046#0 65089046#1 65089046#2 65089046#3 542537667#0 542537667#1 542537667#2 389763214"/>
    </vehicle>
    <vehicle id="11" type="trafico_hora_pico" depart="14.00">
        <route edges="-895035173#0 -1101837201 52763077 61390459 50367491#4 101460268 552259399 101460267#0 101460267#2 894137679#0 894137679#1 894137679#2 101459744 45393773#0 45393773#1 400449634#4 45393787#0 45393787#1 45393787#2 45393787#3 543403942#1 543403942#2 543403942#3 543403942#4 47198281 427451695#3 427451695#4"/>
    </vehicle>
    <vehicle id="12" type="trafico_hora_pico" depart="14.00">
        <route edges="40668086#0 40668086#1 29223063#0 29223063#1 1328291918 311431490#0 311431490#1 397464990#1 42456623#3 42456623#4 42456623#5 42456626 640991886#1 42456628#3 42456625#0 42456625#1 42456625#2 42456625#3 42456625#4 42456625#5 553318155 553318161#0 895272991#1 895423025 42140283#0 42140283#1 42140284#3 40972477#0 40972477#1 662266624 542415586#0 542415586#1 48903054#0 48903054#1 48903054#2 662266021#0 662266021#1 662266021#2 662266021#3 558903818#1 558903818#2 558903818#4 558903818#5 558903816 65089046#0 65089046#1 65089046#2 65089046#3 542537667#0 542537667#1 542537667#2 389763214 532135453#0 532135453#1 532135453#2 532135453#3 532135452 641240400#0 641240400#1 641240400#2 641240400#3 404412742 -48101876#3 -48101876#2"/>
    </vehicle>
    <vehicle id="13" type="trafico_hora_pico" depart="21.00">
        <route edges="895455490#1 895455490#2 -895455490#2 -895455490#1 -895455490#0 895035169 329581870#0 61426883#0 404105016#0"/>
    </vehicle>
    <vehicle id="14" type="trafico_hora_pico" depart="21.00">
        <route edges="553343874 325042057#2 325042057#3 325042057#6 553343873 360625700 45429562 45426149#2 45426149#3 45426149#4 305048624#0 305048624#1 305048624#2 305048624#3 305048624#5 -45429554#3 -45429554#2 -45429554#1 -45429554#0 548294140 48903062#0 48903062#1 48903062#2 402801840#0 402801840#1 -48903014#7 -48903014#5 -48903014#4 -48903014#2 -48903014#1 -48903014#0 473373906#1 473373906#2 473373906#3 473373906#4 473373906#7 42141324#1 42141324#2 42141324#3 46227736 -611330743 -402394678#2 -402394678#0 -542537664 -46227734#3 91013783#0 91013777 1106637267#1 1106637267#2 -304928016#1 -304928016#0 304928016#0 304928016#1 81508865#0"/>
    </vehicle>
    <vehicle id="15" type="trafico_hora_pico" depart="22.00">
        <route edges="325042057#2 325042057#3 325042057#6 553343873 360625700 45429562 45426149#2 45426149#3 45426149#4 305048624#0 305048624#1 305048624#2 305048624#3 305048624#5 -45429554#3 -45429554#2 -45429554#1 -45429554#0 548294140 542415585 542415588 893247429 893247430 475312110#0 475312110#1 48903076#1 42140284#5 42140284#6 42140284#7 397470319#0 397470319#1 893243543 -48537840#0 48537852 48537817#0 -48537815#2 -48537815#1 -48537815#0 400679084#3"/>
    </vehicle>
    <vehicle id="16" type="trafico_hora_pico" depart="24.00">
        <route edges="45393781#2 45393775#5 45393775#6 45393775#7 894137678 894137676 552506219#0 552506219#1 552506219#2 552506219#3 -101460267#2 -101460267#0 -552259399 46227737 50367491#6 50367491#1 50367491#2 61390455 61390457 -1101837198 -542537659#10 -542537659#9 -542537659#8 -542537659#7 -542537659#6 -542537659#5 -542537659#4 -542537659#3 -542537659#2 -542537659#1 -542537659#0 81508880#0 81508880#0-AddedOffRampEdge 81508880#1 1106637267#0 1106637267#1 1106637267#2 -304928016#1 -304928016#0 -304927990 -1053087751 258714357 91013816#1 -91013816#1"/>
    </vehicle>
    <vehicle id="17" type="trafico_hora_pico" depart="25.00">
        <route edges="-48537813#0 48537813#0 400679084#4 400679084#5 400679084#6 400679084#7 400679084#8 400679084#9 400679084#10 400679084#11 400679084#12 402511536 473373906#1 473373906#2 473373906#3 473373906#4 473373906#7 42141324#1 42141324#2 42141324#3 46227736 -611330743 -402394678#2 -402394678#0 403123670#0 403123670#1 48102262#2 48102262#3 48102262#4 -160535588#5 160535588#5"/>
    </vehicle>
    <vehicle id="18" type="trafico_hora_pico" depart="26.00">
        <route edges="81508880#1 46227734#1 46227734#2 46227734#3 46227734#4 402394678#0 402394678#2 611330743 42207961 42141324#5 553308443#0 553308443#1 553308443#2 553308443#3 553308443#4 553308443#5 553308443#6 48903014#0 48903014#1 48903014#2 48903014#4 48903014#5 48903014#7 48903014#9 48903014#10 65089047#0 65089047#1 65089047#2 662266021#0 662266021#1 662266021#2 662266021#3 558903818#1 40972480#0 40972480#1 558922364#0 558922364#1 824632704#1 824632704#2 45429553#0 45429553#1"/>
    </vehicle>
    <vehicle id="19" type="trafico_hora_pico" depart="27.00">
        <route edges="398036731 402678841 48903011#0 48903011#1 -48903009#0 -248272145#1 -248272145#0 48903032 -48903018#0 48903028 535363736#0 535363736#1 -48903033#1 -48903033#0 -492798728#0 492798727 641240400#0 641240400#1 641240400#2 641240400#3 404412746 475312979#1 305047842#0 -894588817 404414955#1 -404948180 -48963733"/>
    </vehicle>
    <vehicle id="20" type="trafico_hora_pico" depart="29.00">
        <route edges="258715364#1 -258715364#1 301927576#0 301927576#1 301927572#0 301927572#1 509965323 301927574 46227740#6 46227740#1 45424969#0 45424969#1 403003676 52763077 61390459 50367491#4 101460268 552259399 101460267#0 101460267#2 894137679#0 894137679#1 894137679#2 101459744 45393773#0 45393773#1 45393773#2 45393773#3 45393773#4 45393773#5 45393773#6 1160030823#1 1160030823#2 48537813#0 48537813#1 48537813#2 48537813#3 397464985#0 397464985#1 48537840#0 247049841#0 247049841#1 397464997#2"/>
    </vehicle>
    <vehicle id="21" type="trafico_hora_pico" depart="31.00">
        <route edges="553308443#7 473373906#0 473373906#1 473373906#2 473373906#3 473373906#4 473373906#7 42141324#1 42141324#2 42141324#3 46227736 -611330743 -402394678#2 -402394678#0 -542537664 -46227734#3 91013783#0 91013783#1 258714357 91013816#1 91013816#2 91013816#3 552455433 -304931054 -893268806 -48914848#7 -48914848#6 -48914848#5 -48914848#3 -48914848#0 42207958#0"/>
    </vehicle>
    <vehicle id="22" type="trafico_hora_pico" depart="31.00">
        <route edges="48537838#4 48537838#5 48537838#6 893245580#2 553308451 553308455 893427498#0 893427498#1 473373906#0 48903014#0 48903014#1 48903014#2 48903014#4 48903014#5 48903014#7 402684249 -48903009#0 -248272145#1 -248272145#0 48903032 -48903018#0 48903018#0"/>
    </vehicle>
    <vehicle id="23" type="trafico_hora_pico" depart="32.00">
        <route edges="-893268805 893268805 61426887#0 61426887#1 61426887#2 61426887#3 403000148 403000149#0 403000149#1 403000151#1 542542874 552616903 552616904#0 552616904#1"/>
    </vehicle>
    <vehicle id="24" type="trafico_hora_pico" depart="33.00">
        <route edges="893427501#0 893427501#1 893427501#2 893245579#0 893245579#1 893245579#2 42140284#7 397470319#0 397470319#1 48537838#0 48537838#1"/>
    </vehicle>
    <vehicle id="25" type="trafico_hora_pico" depart="33.00">
        <route edges="404946393#2 107405956#1 107405956#2 107405956#3 65157430#0 65157430#1 65157430#2 260535256#0 260535256#1 260535256#2 402804499#1 402804499#2 558903818#5 558903818#8 558903818#9 42207949 548294138 548294140 542415585 542415588 893247429 893247430 48903075#0 48903075#1 48903067 893245580#0 893245580#1 893245580#2 553308451 -895023609 -1053146630 -320862698#3 -320862698#2 -320862698#1 -320862698#0 45393768#0 45393768#1 45393768#2 45393768#3 45393768#4 45393768#5 -45393773#0 -552506221#2"/>
    </vehicle>
    <vehicle id="26" type="trafico_hora_pico" depart="37.00">
        <route edges="542537659#4 -542537659#4 -542537659#3 -542537659#2 -542537659#1 -542537659#0 81508880#0 81508880#0-AddedOffRampEdge 432676627#0 432676627#1 46227734#2 46227734#3 46227734#4 402394678#0 402394678#2 611330743 42207961 42141324#5 42141324#6 42141324#1 48903026#0 48903026#1 48903026#2 48903026#3 48903026#4 492798730 492798729 492798727 641240400#0 641240400#1 641240400#2 65157427#0 65157427#1 65157427#2 65157427#3 65157427#5 952365290#0 952365290#2 952365290#3 952365290#4 65157430#0 65157430#1 65157430#2 65157430#3 314641203 48203218#0 48203231#0 48203231#1 48203231#2 48203231#3 48203231#5 553343875#0 -553343875#0"/>
    </vehicle>
    <vehicle id="27" type="trafico_hora_pico" depart="38.00">
        <route edges="48903067 -48903074#1 -48903074#0 48903019#2 48903019#3 48903019#4 542415586#0 542415586#1 48903054#0 48903054#1 48903054#2 662266021#0 662266021#1 662266021#2 662266021#3 558903818#1 40972480#0 40972480#1"/>
    </vehicle>
    <vehicle id="28" type="trafico_hora_pico" depart="38.00">
        <route edges="769468025#0 -769468025#0 160535588#4 160535588#5 -48102262#4 -48102262#3 -48102262#2 -48102262#0 -403123670#0 402394678#0 402394678#2 611330743 42207961 42141324#5 553308443#0 553308443#1 553308443#2 553308443#3 553308443#4 553308443#5 553308443#6 -402511536 -400679084#12 -400679084#11 -400679084#10 -400679084#9 -400679084#8 -1053146630 -320862698#3 -320862698#2 -320862698#1 397312900#1 45393771#0 45393771#1 45393773#4"/>
    </vehicle>
    <vehicle id="29" type="trafico_hora_pico" depart="39.00">
        <route edges="48537815#2 48537817#1 48537817#2 48537817#3 -402510057 400679084#5 400679084#6 400679084#7 400679084#8 400679084#9 400679084#10 400679084#11 400679084#12 402511536 473373906#1 553308440#0 553308440#1 -48903023#3 -48903023#2 -48903023#1 -48903023#0 48903022 402431111#1 402686085#0 402686085#1 -402686085#1"/>
    </vehicle>
    <vehicle id="30" type="trafico_hora_pico" depart="41.00">
        <route edges="-269103127#0 62202960 45393761#0 45393761#1 45393761#2 45393761#3 400008036#2 269103119#0 269103119#1 48903010#4 48903010#5 400679084#0 400679084#1 400679084#3 400679084#4 400679084#5 400679084#6 400679084#7 400679084#8 400679084#9 400679084#10 400679084#11 400679084#12 402511536 473373906#1 473373906#2 473373906#3 473373906#4 473373906#7 42141324#1 42141324#2 42141324#3 46227736 42143236 611330745"/>
    </vehicle>
    <vehicle id="31" type="trafico_hora_pico" depart="46.00">
        <route edges="86134858#5 86134858#7 61426884 61426885#2 61426870#0 61426870#1 300733514#2 301927573#0 301927573#1 301927574 46227740#6 46227740#1 45424969#0 45424969#1 403003676 52763077 61390459 50367491#4 101460268 552259399 101460267#0 101460267#2 894137679#0 894137679#1 894137679#2 101459744 45393773#0 45393773#1 45393773#2 45393773#3 45393773#4 45393773#5 45393773#6 1160030823#1 1160030823#2 48537813#0 48537813#1 48537813#2 48537813#3 397464985#0 397464985#1 48537840#0 247049841#0 247049841#1 553327981 247049840#4 247049840#5 247049840#6 42456628#5 42456628#6 42456628#1 45429552 1180114594#1 42456623#7 42456623#8 42456623#1 311431489#0 311431489#1 40668089#0 40668089#1 40668089#2 399278565 42456620 1328291918 48538986#0 48538986#1"/>
    </vehicle>
    <vehicle id="32" type="trafico_hora_pico" depart="47.00">
        <route edges="532135452 641240400#0 641240400#1 641240400#2 65157427#0 65157427#1 65157427#2 65157427#3 65157427#5 952365290#0 952365290#2 952365290#3 952365290#4 65157430#0 65157430#1 65157430#2 260535256#0 260535256#1 260535256#2 402804499#1 402804499#2 558903818#5 558903818#8 558903818#9 42207949 548294138 548294140 542415585 542415588 893247429 893247430 475312110#0 475312110#1 48903076#1 42140284#5 42140284#6 42140284#7 397470319#0 397470319#1 893243543 397470317 397470314 397470312 42141325 400679084#0 400679084#1"/>
    </vehicle>
    <vehicle id="34" type="trafico_hora_pico" depart="51.00">
        <route edges="48903041 48903023#3 48903044 473373906#3 473373906#4 473373906#7 42141324#1 42141324#2 42141324#3 46227736 -611330743 -402394678#2 -402394678#0 403123670#0 403123670#1 48102262#2 48102262#3 48102262#4 -160535588#5 -160535588#4 -160535588#2"/>
    </vehicle>
    <vehicle id="35" type="trafico_hora_pico" depart="56.00">
        <route edges="42140283#0 42140283#1 42140284#3 42140284#4 42140284#5 895423024 48903016#0 48903016#1 893245580#0 893245580#1 893245580#2 553308451 -895023609 -1053146630 -320862698#3 -320862698#2 -320862698#1 -320862698#0 45393768#0 45393768#1 45393768#2 45393768#3 45393768#4 45393768#5 -45393773#0 -552506221#2 -552506221#1 397364887#0 397364887#1 397364884#5"/>
    </vehicle>
    <vehicle id="36" type="trafico_hora_pico" depart="57.00">
        <route edges="48101867 65157427#1 65157427#2 65157427#3 65157427#5 952365290#0 952365290#2 952365290#3 952365290#4 65157430#0 65157430#1 65157430#2 260535256#0 260535256#1 260535256#2 402804499#1 402804499#2 558903818#5 558903818#8 558903818#9 42207949 548294138 45429554#0 45429554#1 45429554#2 45429554#3 337243756#0 337243756#1 48903092#3 48903049#7 48903049#8 48903049#9 48903087#0 48903087#1 946923667#1 946923667#2 553296219#0 247049840#1 247049840#2 247049840#3 247049840#4 247049840#5 247049840#6 42456628#5 42456628#6 42456628#1 45429552 1180114594#1 42456623#7 311431487 895028863#0 895028863#1 740080580#0 740080580#1 740080580#2 740080580#3 740080580#4 48538981#0 1148281186#1 48538980#1"/>
    </vehicle>
    <vehicle id="37" type="trafico_hora_pico" depart="57.00">
        <route edges="47652008#0 -47652008#0 45388030#0 45388030#1 45388030#3 45388030#4 45388030#5 45388030#6 563465755 -48859304#5 -48859304#4 -48859304#3 -48859304#2 45393772#6 45393772#7 45393772#8 45393772#9 45393772#10 400008038#0 400008038#1 542393522 893239412 893239411#0 542393520#1 474831745#1 893240789#0 893240789#1 893240788 397470313 397470315 397470316 247049841#0 247049841#1 553327981 247049840#4 247049840#5 247049840#6 42456628#5 42456628#6 42456628#1 45429552 1180114594#1 42456623#7 42456623#8 42456623#1 311431489#0 311431489#1 40668089#0 40668089#1 40668089#2 399278565 1363038401#0 40668086#1 40668086#2"/>
    </vehicle>
    <vehicle id="38" type="trafico_hora_pico" depart="57.00">
        <route edges="404410864 48101876#1 48101876#2 48101876#3 475312979#0 475312979#1 305047842#0 305047842#2 305047842#3 404947410 952365290#2 952365290#3 952365290#4 65157430#0 65157430#1 65157430#2 260535256#0 260535256#1 260535256#2 402804499#1 402804499#2 558903818#5 558903818#8 558903818#9 42207949 548294138 548294140 542415585 542415588 893247429 893247430 48903075#0 48903075#1 48903067 893245580#0 893245580#1 893245580#2 553308451 -895023609 -1053146630 -320862698#3 -320862698#2 -320862698#1 397312900#1 45393771#0 45393771#1 -1293423965"/>
    </vehicle>
    <vehicle id="39" type="trafico_hora_pico" depart="60.00">
        <route edges="45393772#12 552506218#3 542393515 553331430 38928050#1 38928050#2 402523223 523917172#0 -208781831"/>
    </vehicle>
    <vehicle id="41" type="trafico_hora_pico" depart="62.00">
        <route edges="895035173#0 895035173#1 895035173#2 895035173#3 -895035173#3 -895035173#2 -895035173#1 -895035173#0 -1101837201 52763077 61390459 50367491#4 50367491#5 50367491#6 61390453 -45393818 542537653 50367490#0 50367490#1 50367490#2 894341925 894340618 894340617#0 894340620#1 46227735#0 46227735#2 -402394678#0 403123670#0 403123670#1 48102262#2 48102262#3 48102262#4 -160535588#5 -160535588#4 -160535588#2 -160535588#1 -252659490"/>
    </vehicle>
    <vehicle id="43" type="trafico_hora_pico" depart="64.00">
        <route edges="542542882#0 542542882#1 542542882#2 542542882#3 403002800#0 403002800#1 61390447 46227740#5 46227740#6 46227740#1 45424969#0 45424969#1 403003676 52763077 61390459 50367491#4 101460268 552259399 101460267#0 101460267#2 894137679#0 894137679#1 894137679#2 101459744 45393773#0 45393773#1 45393773#2 45393773#3 45393773#4 45393773#5 45393773#6 1160030823#1 1160030823#2 48537813#0 48537813#1 48537813#2 48537813#3 397464985#0 397464985#1 48537840#0 247049841#0 247049841#1 553327981 247049840#4 247049840#5 247049840#6 42456628#5 42456628#6 42456628#1 45429552 1180114594#1 42456623#7 42456623#8 42456623#1 311431489#0 311431489#1 40668089#0 40668089#1 40668089#2 399278565 1363038401#0 1363038401#1 753497162#0 753497162#1"/>
    </vehicle>
    <vehicle id="44" type="trafico_hora_pico" depart="66.00">
        <route edges="-404961938#2 -404961938#1 -404961938#0 -475312979#1 -475312979#0"/>
    </vehicle>
    <vehicle id="46" type="trafico_hora_pico" depart="68.00">
        <route edges="427451695#2 427451695#3 269102304 269102913#1 48903010#3 48903010#4 48903010#5 400679084#0 400679084#1 400679084#3 400679084#4 400679084#5 400679084#6 400679084#7 400679084#8 400679084#9 400679084#10 400679084#11 400679084#12 402511536 473373906#1 473373906#2 473373906#3 473373906#4 473373906#7 42141324#1 42141324#2 42141324#3 46227736 -611330743 -402394678#2 -402394678#0 -542537664 -46227734#3 91013783#0 91013783#1 258714357 91013816#1 91013816#2 91013816#3 552455433 -304931054 402453006 543348628 552447269"/>
    </vehicle>
    <vehicle id="47" type="trafico_hora_pico" depart="70.00">
        <route edges="-897190043#5 -897190043#4 -897190043#3 -897190043#2 -897190043#1 260286330 47198320#0 47198320#2 47198320#4 305048624#0 305048624#1 305048624#2 305048624#3 305048624#5 -45429554#3 -45429554#2 -45429554#1 -45429554#0 548294140 542415585 542415588 893247429 893247430 475312110#0 475312110#1 48903076#1 42140284#5 42140284#6 42140284#7 397470319#0 397470319#1 893243543 397470317 397470314 397470312 42141325 893240787 553331432#1 542393519#0 542393519#1 893239410#1 543403942#1 543403942#2 400008036#1"/>
    </vehicle>
    <vehicle id="48" type="trafico_hora_pico" depart="74.00">
        <route edges="329539307#2 -47652008#0 45388030#0 45388030#1 45388030#3 45388030#4 -45393800#3 -45393800#2 -45393800#1 -45393800#0 101460267#2 894137679#0 894137679#1 397364884#7 397364884#8 397364884#9 400015851#0 400015851#1 400015851#2 559313852#0 559313852#1 403199315 397364883#0 400015856"/>
    </vehicle>
    <vehicle id="49" type="trafico_hora_pico" depart="76.00">
        <route edges="45393784#3 400016014 -45393770 45393772#2 45393772#3 45393772#4 45393772#5 45393772#6 45393772#7 -400907051#1 -400907051#0 -45393763#5 -45393763#4 -45393763#3 -45393763#2 -45393763#1 -45393763#0 542406711#2 542406711#3 -101460267#2 -101460267#0 -552259399 46227737 50367491#6 50367491#1 50367491#2 61390455 61390457 -1101837198 -542537659#10 -542537659#9 -542537659#8 -542537659#7 -542537659#6 -542537659#5 -542537659#4 -542537659#3 -542537659#2 -542537659#1 -542537659#0 81508880#0 81508880#0-AddedOffRampEdge 81508880#1 1106637267#0 1106637267#1 1106637267#2 -304928016#1 -304928016#0 -304927990 -1053087751 258714357 91013813#0"/>
    </vehicle>
    <vehicle id="50" type="trafico_hora_pico" depart="77.00">
        <route edges="-61426872#8 -61426872#7 61426868#0 61426868#1 -895035173#5 -895035173#4 -895035173#3 -895035173#2 -895035173#1 -895035173#0 -1101837201 52763077 61390459 50367491#4 50367491#5 50367491#6 61390453 -45393818 45393804#0 45393804#1 320862699 320862698#0 320862698#1 320862698#2 320862698#3 1053146630 895023609 893427501#0 893427501#1 893427501#2 893245579#0 893245579#1 893245579#2 42140284#7 42140284#8 42140284#1 42140284#2 42140284#3 42140284#4 42140284#5 895423024 48903016#0 48903016#1"/>
    </vehicle>
    <vehicle id="51" type="trafico_hora_pico" depart="77.00">
        <route edges="563376160#1 311431492 42456623#5 42456626 640991886#1 42456628#3 42456625#0 42456625#1 42456625#2 42456625#3 42456625#4 42456625#5 397464991 535363735 48537856#1 397464992 535363734 48537860#1"/>
    </vehicle>
    <vehicle id="52" type="trafico_hora_pico" depart="79.00">
        <route edges="61390458#1 61390458#2 -775434265 509965323 301927574 46227740#6 46227740#1 45424969#0 45424969#1 403003676 52763077 61390459 50367491#4 50367491#5 50367491#6 61390453 -45393818 45393804#0 45393804#1 320862699 320862698#0 320862698#1 320862698#2 320862698#3 1053146630 895023609 893427501#0 893427501#1 893427501#2 893245579#0 893245579#1 893245579#2 42140284#7 42140284#8 42140284#1 50370776#0 50370776#1 946923667#0 946923667#1 946923667#2 553296219#0 895272990#1 533793749#3"/>
    </vehicle>
    <vehicle id="53" type="trafico_hora_pico" depart="79.00">
        <route edges="-403005985 61426868#1 895035172 -42143228 -432676623#2 45388030#3 45388030#4 45388030#5 45388030#6 563465755 -48859304#5 -48859304#4 -48859304#3 -48859304#2 45393772#6 45393772#7 45393772#8 45393772#9 45393772#10 400008038#0 400008038#1 542393522 893239412 893239411#0 542393520#1 474831745#1 893240789#0 893240789#1 893240788 397470313 397470315 397470316 247049841#0 247049841#1 -397464997#1 397464997#1"/>
    </vehicle>
    <vehicle id="54" type="trafico_hora_pico" depart="80.00">
        <route edges="45393772#4 45393772#5 45393772#6 45393772#7 45393772#8 45393772#9 45393772#10 45393772#11 45393772#12 400006776#1 400006776#2 400451216#0 400451216#1 400448826 400014712 402499842#0 402499842#1 402499842#3 402499842#4 320862698#2 320862698#3 1053146630 400679084#8 400679084#9 400679084#10 400679084#11 400679084#12 402511536 473373906#1 553308440#0 553308440#1 -48903023#3 -48903023#2 -48903023#1 -48903023#0 48903022 402431111#1 -402431111#1"/>
    </vehicle>
    <vehicle id="55" type="trafico_hora_pico" depart="83.00">
        <route edges="-1239284339 397465003#1 48537842#4 48537842#5 45429550#5 48149037#2 48149037#3 48149037#4 48149037#5 48149037#6 48149035#0 48149035#1 42456628#1 45429552 1180114594#1 42456623#7 42456623#8 42456623#1 42456623#2 42456623#3 311431491 -563376160#1 -563376160#0 -563376161#4 -563376161#3 -563376161#2"/>
    </vehicle>
    <vehicle id="56" type="trafico_hora_pico" depart="83.00">
        <route edges="40668089#2 399278565 42456620 1328291918 311431490#0 311431490#1 397464990#1 42456623#3 42456623#4 42456623#5 42456626 640991886#1 42456628#3 42456625#0 42456625#1 42456625#2 42456625#3 42456625#4 42456625#5 553318155 553318161#0 895272991#1 895423025 42140283#0 42140283#1 42140284#3 42140284#4 42140284#5 895423024 48903016#0 48903016#1 893245580#0 893245580#1 893245580#2 553308451 553308455 893427498#0 893427498#1 473373906#0 473373906#1 553308440#0 553308440#1 -48903023#3 -48903023#2 -48903023#1 -48903023#0 48903022 402431111#1 402686085#0 402686085#1 402686088#0 402686087"/>
    </vehicle>
    <vehicle id="57" type="trafico_hora_pico" depart="84.00">
        <route edges="542393635#1 408713357 542393508#0 542393508#1 542393508#2 553331427 527997818#0 527997818#1 527997818#2 45393764#2 45393772#9 45393772#10 45393772#11 45393772#12 45393806#2 45393810#1 45393810#2 45393810#3"/>
    </vehicle>
    <vehicle id="58" type="trafico_hora_pico" depart="85.00">
        <route edges="61390458#1 61390458#2 -775434265 509965323 301927574 46227740#6 46227740#1 45424969#0 45424969#1 403003676 52763077 61390459 50367491#4 50367491#5 50367491#6 61390453 -45393818 542537653 50367490#0 50367490#1 50367490#2 894341925 894340618 894340617#0 894340620#1 46227735#0 46227735#2 -402394678#0 -542537664 -46227734#3"/>
    </vehicle>
    <vehicle id="59" type="trafico_hora_pico" depart="86.00">
        <route edges="427451695#6 427451695#7 62202960 45393761#0 45393761#1 45393761#2 45393761#3 45393761#4 893239410#1 893239409 542393515 553331430 542393509#0 542393509#1 542393509#2 553331428 48859304#1 48859304#2 48859304#3 48859304#4 48859304#5 548211921 -45388030#6 -45388030#5 -45388030#4 -45388030#3 432676623#2 42143228 895035169 329581870#0 329581870#1 329581870#2 329581870#3 -338566777 -338566780#3"/>
    </vehicle>
    <vehicle id="60" type="trafico_hora_pico" depart="87.00">
        <route edges="-552616912 61390458#2 -775434265 -301927572#1 -301927572#0 -301927576#1 -301927576#0 -258715364#0 893216949#0 893216949#1 893216949#2 893216950#0 61426878#0 61426878#1"/>
    </vehicle>