<?xml version="1.0" encoding="UTF-8"?>
<!-- generated on 2026-04-22 14:53:53.163685 by randomTrips.py UNKNOWN
  options: -b 0 -e 3600 -p 1 -n map5.net.xml <doubleminus>trip-attributes type="trafico_hora_pico" <doubleminus>random-depart -o trafico_hora_pico.trips.xml <doubleminus>route-file trafico_hora_pico.rou.xml
-->
<routes xmlns:xsi="http://www.w3.org/2001/XMLSchema-instance" xsi:noNamespaceSchemaLocation="http://sumo.dlr.de/xsd/routes_file.xsd">
    <trip id="0" depart="1.00" from="527997818#4" to="48903207" type="trafico_hora_pico"/>
    <trip id="1" depart="2.00" from="45393775#3" to="404961938#4" type="trafico_hora_pico"/>
    <trip id="2" depart="4.00" from="61426872#2" to="314641202#3" type="trafico_hora_pico"/>
    <trip id="3" depart="6.00" from="893239410#1" to="-242069339#0" type="trafico_hora_pico"/>
    <trip id="4" depart="6.00" from="81508885#2" to="893427498#0" type="trafico_hora_pico"/>
    <trip id="5" depart="8.00" from="-45393764#2" to="952380266#0" type="trafico_hora_pico"/>
    <trip id="6" depart="10.00" from="403181057#0" to="1180131815" type="trafico_hora_pico"/>
    <trip id="7" depart="10.00" from="47198291#0" to="-86134858#2" type="trafico_hora_pico"/>
    <trip id="8" depart="11.00" from="751431204#2" to="45393787#2" type="trafico_hora_pico"/>
    <trip id="9" depart="12.00" from="535363736#2" to="397464997#4" type="trafico_hora_pico"/>
    <trip id="10" depart="13.00" from="453516157#0" to="389763214" type="trafico_hora_pico"/>
    <trip id="11" depart="14.00" from="-895035173#0" to="427451695#4" type="trafico_hora_pico"/>
    <trip id="12" depart="14.00" from="40668086#0" to="-48101876#2" type="trafico_hora_pico"/>
    <trip id="13" depart="21.00" from="895455490#1" to="404105016#0" type="trafico_hora_pico"/>
    <trip id="14" depart="21.00" from="553343874" to="81508865#0" type="trafico_hora_pico"/>
    <trip id="15" depart="22.00" from="325042057#2" to="400679084#3" type="trafico_hora_pico"/>
    <trip id="16" depart="24.00" from="45393781#2" to="-91013816#1" type="trafico_hora_pico"/>
    <trip id="17" depart="25.00" from="-48537813#0" to="160535588#5" type="trafico_hora_pico"/>
    <trip id="18" depart="26.00" from="81508880#1" to="45429553#1" type="trafico_hora_pico"/>
    <trip id="19" depart="27.00" from="398036731" to="-48963733" type="trafico_hora_pico"/>
    <trip id="20" depart="29.00" from="258715364#1" to="397464997#2" type="trafico_hora_pico"/>
    <trip id="21" depart="31.00" from="553308443#7" to="42207958#0" type="trafico_hora_pico"/>
    <trip id="22" depart="31.00" from="48537838#4" to="48903018#0" type="trafico_hora_pico"/>
    <trip id="23" depart="32.00" from="-893268805" to="552616904#1" type="trafico_hora_pico"/>
    <trip id="24" depart="33.00" from="893427501#0" to="48537838#1" type="trafico_hora_pico"/>
    <trip id="25" depart="33.00" from="404946393#2" to="-552506221#2" type="trafico_hora_pico"/>
    <trip id="26" depart="37.00" from="542537659#4" to="-553343875#0" type="trafico_hora_pico"/>
    <trip id="27" depart="38.00" from="48903067" to="40972480#1" type="trafico_hora_pico"/>
    <trip id="28" depart="38.00" from="769468025#0" to="45393773#4" type="trafico_hora_pico"/>
    <trip id="29" depart="39.00" from="48537815#2" to="-402686085#1" type="trafico_hora_pico"/>
    <trip id="30" depart="41.00" from="-269103127#0" to="611330745" type="trafico_hora_pico"/>
    <trip id="31" depart="46.00" from="86134858#5" to="48538986#1" type="trafico_hora_pico"/>
    <trip id="32" depart="47.00" from="532135452" to="400679084#1" type="trafico_hora_pico"/>
    <trip id="33" depart="50.00" from="553352498#3" to="1106637267#1" type="trafico_hora_pico"/>
    <trip id="34" depart="51.00" from="48903041" to="-160535588#2" type="trafico_hora_pico"/>
    <trip id="35" depart="56.00" from="42140283#0" to="397364884#5" type="trafico_hora_pico"/>
    <trip id="36" depart="57.00" from="48101867" to="48538980#1" type="trafico_hora_pico"/>
    <trip id="37" depart="57.00" from="47652008#0" to="40668086#2" type="trafico_hora_pico"/>
    <trip id="38" depart="57.00" from="404410864" to="-1293423965" type="trafico_hora_pico"/>
    <trip id="39" depart="60.00" from="45393772#12" to="-208781831" type="trafico_hora_pico"/>
    <trip id="40" depart="60.00" from="427451695#9" to="241308387" type="trafico_hora_pico"/>
    <trip id="41" depart="62.00" from="895035173#0" to="-252659490" type="trafico_hora_pico"/>
    <trip id="42" depart="64.00" from="548211919#1" to="48903007" type="trafico_hora_pico"/>
    <trip id="43" depart="64.00" from="542542882#0" to="753497162#1" type="trafico_hora_pico"/>
    <trip id="44" depart="66.00" from="-404961938#2" to="-475312979#0" type="trafico_hora_pico"/>
    <trip id="45" depart="67.00" from="-48537815#2" to="-634980184" type="trafico_hora_pico"/>
    <trip id="46" depart="68.00" from="427451695#2" to="552447269" type="trafico_hora_pico"/>
    <trip id="47" depart="70.00" from="-897190043#5" to="400008036#1" type="trafico_hora_pico"/>
    <trip id="48" depart="74.00" from="329539307#2" to="400015856" type="trafico_hora_pico"/>
    <trip id="49" depart="76.00" from="45393784#3" to="91013813#0" type="trafico_hora_pico"/>
    <trip id="50" depart="77.00" from="-61426872#8" to="48903016#1" type="trafico_hora_pico"/>
    <trip id="51" depart="77.00" from="563376160#1" to="48537860#1" type="trafico_hora_pico"/>
    <trip id="52" depart="79.00" from="61390458#1" to="533793749#3" type="trafico_hora_pico"/>
    <trip id="53" depart="79.00" from="-403005985" to="397464997#1" type="trafico_hora_pico"/>
    <trip id="54" depart="80.00" from="45393772#4" to="-402431111#1" type="trafico_hora_pico"/>
    <trip id="55" depart="83.00" from="-1239284339" to="-563376161#2" type="trafico_hora_pico"/>
    <trip id="56" depart="83.00" from="40668089#2" to="402686087" type="trafico_hora_pico"/>
    <trip id="57" depart="84.00" from="542393635#1" to="45393810#3" type="trafico_hora_pico"/>
    <trip id="58" depart="85.00" from="61390458#1" to="-46227734#3" type="trafico_hora_pico"/>
    <trip id="59" depart="86.00" from="427451695#6" to="-338566780#3" type="trafico_hora_pico"/>
    <trip id="60" depart="87.00" from="-552616912" to="61426878#1" type="trafico_hora_pico"/>
    <trip id="61" depart="89.00" from="61429335" to="404946393#1" type="trafico_hora_pico"/>
    <trip id="62" depart="89.00" from="-305047842#2" to="-432676623#2" type="trafico_hora_pico"/>
    <trip id="63" depart="93.00" from="81508871#0" to="655986901#1" type="trafico_hora_pico"/>
    <trip id="64" depart="94.00" from="45393781#4" to="-314641202#0" type="trafico_hora_pico"/>
    <trip id="65" depart="96.00" from="81508874#0" to="304930424#0" type="trafico_hora_pico"/>
    <trip id="66" depart="100.00" from="893245580#0" to="46227740#2" type="trafico_hora_pico"/>
    <trip id="67" depart="101.00" from="50370776#0" to="48903075#1" type="trafico_hora_pico"/>
    <trip id="68" depart="102.00" from="397312898#1" to="-45388030#5" type="trafico_hora_pico"/>
    <trip id="69" depart="102.00" from="-48537873#0" to="1177425291" type="trafico_hora_pico"/>
    <trip id="70" depart="105.00" from="553308455" to="398039040" type="trafico_hora_pico"/>
    <trip id="71" depart="105.00" from="65089044#4" to="314641202#0" type="trafico_hora_pico"/>
    <trip id="72" depart="105.00" from="510894188" to="-48903032" type="trafico_hora_pico"/>
    <trip id="73" depart="106.00" from="91013797" to="48903206#1" type="trafico_hora_pico"/>
    <trip id="74" depart="107.00" from="40668089#4" to="895028863#1" type="trafico_hora_pico"/>
    <trip id="75" depart="107.00" from="-320862698#3" to="402792948#0" type="trafico_hora_pico"/>
    <trip id="76" depart="108.00" from="553331432#1" to="326803121" type="trafico_hora_pico"/>
    <trip id="77" depart="109.00" from="533793750#2" to="893239412" type="trafico_hora_pico"/>
    <trip id="78" depart="109.00" from="392349033#2" to="542393509#0" type="trafico_hora_pico"/>
    <trip id="79" depart="110.00" from="-252659498" to="241308378#0" type="trafico_hora_pico"/>
    <trip id="80" depart="111.00" from="91013817" to="42140283#0" type="trafico_hora_pico"/>
    <trip id="81" depart="113.00" from="305048624#2" to="86484895" type="trafico_hora_pico"/>
    <trip id="82" depart="115.00" from="400015851#0" to="48903014#0" type="trafico_hora_pico"/>
    <trip id="83" depart="116.00" from="48537842#4" to="-45393776" type="trafico_hora_pico"/>
    <trip id="84" depart="117.00" from="48101876#2" to="542542880#4" type="trafico_hora_pico"/>
    <trip id="85" depart="118.00" from="48903051#0" to="-45393768#4" type="trafico_hora_pico"/>
    <trip id="86" depart="118.00" from="-48537836#1" to="48903074#1" type="trafico_hora_pico"/>
    <trip id="87" depart="118.00" from="48203226#0" to="50367491#1" type="trafico_hora_pico"/>
    <trip id="88" depart="118.00" from="242069217#1" to="-48203231#5" type="trafico_hora_pico"/>
    <trip id="89" depart="122.00" from="-1180131816" to="29223186#4" type="trafico_hora_pico"/>
    <trip id="90" depart="124.00" from="306186364#0" to="241299704#2" type="trafico_hora_pico"/>
    <trip id="91" depart="125.00" from="-46227734#3" to="-61426880#7" type="trafico_hora_pico"/>
    <trip id="92" depart="127.00" from="402431111#1" to="45393796#0" type="trafico_hora_pico"/>
    <trip id="93" depart="127.00" from="397464991" to="-301927576#1" type="trafico_hora_pico"/>
    <trip id="94" depart="127.00" from="305047842#0" to="-45429554#0" type="trafico_hora_pico"/>
    <trip id="95" depart="128.00" from="46227734#2" to="305293738" type="trafico_hora_pico"/>
    <trip id="96" depart="129.00" from="338566778#0" to="258715364#0" type="trafico_hora_pico"/>
    <trip id="97" depart="129.00" from="338566780#3" to="-45393773#4" type="trafico_hora_pico"/>
    <trip id="98" depart="130.00" from="65157427#3" to="740080580#1" type="trafico_hora_pico"/>
    <trip id="99" depart="131.00" from="895035173#2" to="45393817#3" type="trafico_hora_pico"/>
    <trip id="100" depart="131.00" from="-48538980#1" to="397464997#5" type="trafico_hora_pico"/>
    <trip id="101" depart="132.00" from="-48102262#7" to="269103119#0" type="trafico_hora_pico"/>
    <trip id="102" depart="133.00" from="404961938#1" to="-403104440#2" type="trafico_hora_pico"/>
    <trip id="103" depart="134.00" from="400016014" to="400908321" type="trafico_hora_pico"/>
    <trip id="104" depart="136.00" from="403898771#2" to="-45388030#5" type="trafico_hora_pico"/>
    <trip id="105" depart="137.00" from="-86484895" to="1228789766" type="trafico_hora_pico"/>
    <trip id="106" depart="142.00" from="48149035#0" to="47198295#8" type="trafico_hora_pico"/>
    <trip id="107" depart="147.00" from="-509965323" to="-48537813#0" type="trafico_hora_pico"/>
    <trip id="108" depart="147.00" from="160535591#2" to="893216949#1" type="trafico_hora_pico"/>
    <trip id="109" depart="148.00" from="258854962#1" to="48203227" type="trafico_hora_pico"/>
    <trip id="110" depart="149.00" from="542542880#1" to="311431490#0" type="trafico_hora_pico"/>
    <trip id="111" depart="150.00" from="260535256#2" to="552455433" type="trafico_hora_pico"/>
    <trip id="112" depart="151.00" from="61426861#0" to="895028863#1" type="trafico_hora_pico"/>
    <trip id="113" depart="151.00" from="-48102262#0" to="305047842#0" type="trafico_hora_pico"/>
    <trip id="114" depart="152.00" from="86484927" to="-81508882" type="trafico_hora_pico"/>
    <trip id="115" depart="152.00" from="241299744#2" to="893427501#2" type="trafico_hora_pico"/>
    <trip id="116" depart="153.00" from="894137679#0" to="258714358" type="trafico_hora_pico"/>
    <trip id="117" depart="154.00" from="48903016#0" to="42140283#1" type="trafico_hora_pico"/>
    <trip id="118" depart="154.00" from="45393806#1" to="1180131815" type="trafico_hora_pico"/>
    <trip id="119" depart="156.00" from="329974455#3" to="552506218#0" type="trafico_hora_pico"/>
    <trip id="120" depart="156.00" from="389763216#1" to="-48537833#2" type="trafico_hora_pico"/>
    <trip id="121" depart="158.00" from="45393781#5" to="47198295#3" type="trafico_hora_pico"/>
    <trip id="122" depart="159.00" from="45393768#1" to="48903014#7" type="trafico_hora_pico"/>
    <trip id="123" depart="160.00" from="45393772#0" to="893216953#2" type="trafico_hora_pico"/>
    <trip id="124" depart="161.00" from="402797116" to="48903063#2" type="trafico_hora_pico"/>
    <trip id="125" depart="161.00" from="400451216#1" to="258714357" type="trafico_hora_pico"/>
    <trip id="126" depart="162.00" from="48903014#5" to="552506219#2" type="trafico_hora_pico"/>
    <trip id="127" depart="163.00" from="542537659#6" to="400449634#2" type="trafico_hora_pico"/>
    <trip id="128" depart="163.00" from="40668089#0" to="48537819" type="trafico_hora_pico"/>
    <trip id="129" depart="164.00" from="-81508862#1" to="48538434#0" type="trafico_hora_pico"/>
    <trip id="130" depart="164.00" from="48903054#2" to="542537659#6" type="trafico_hora_pico"/>
    <trip id="131" depart="164.00" from="-400679084#1" to="91013813#1" type="trafico_hora_pico"/>
    <trip id="132" depart="168.00" from="403181057#0" to="400014711#4" type="trafico_hora_pico"/>
    <trip id="133" depart="168.00" from="42140284#1" to="81508871#0" type="trafico_hora_pico"/>
    <trip id="134" depart="168.00" from="48903014#10" to="45393775#1" type="trafico_hora_pico"/>
    <trip id="135" depart="171.00" from="542415586#1" to="389763215#0" type="trafico_hora_pico"/>
    <trip id="136" depart="171.00" from="65089044#2" to="45393772#12" type="trafico_hora_pico"/>
    <trip id="137" depart="172.00" from="48203232#1" to="-45393773#5" type="trafico_hora_pico"/>
    <trip id="138" depart="173.00" from="533793750#2" to="48537874" type="trafico_hora_pico"/>
    <trip id="139" depart="173.00" from="305048624#0" to="48537842#0" type="trafico_hora_pico"/>
    <trip id="140" depart="177.00" from="-304930431#1" to="91013774" type="trafico_hora_pico"/>
    <trip id="141" depart="177.00" from="48538981#0" to="400014711#1" type="trafico_hora_pico"/>
    <trip id="142" depart="178.00" from="50370776#1" to="894137678" type="trafico_hora_pico"/>
    <trip id="143" depart="178.00" from="400014711#7" to="-160535590#0" type="trafico_hora_pico"/>
    <trip id="144" depart="178.00" from="-894588836" to="427451691" type="trafico_hora_pico"/>
    <trip id="145" depart="179.00" from="42456623#4" to="45429554#2" type="trafico_hora_pico"/>
    <trip id="146" depart="180.00" from="45393805#2" to="403000151#0" type="trafico_hora_pico"/>
    <trip id="147" depart="181.00" from="389763215#1" to="542393508#0" type="trafico_hora_pico"/>
    <trip id="148" depart="181.00" from="45426149#3" to="42207958#3" type="trafico_hora_pico"/>
    <trip id="149" depart="181.00" from="29223186#4" to="-29223186#3" type="trafico_hora_pico"/>
    <trip id="150" depart="185.00" from="-404946393#1" to="400679084#8" type="trafico_hora_pico"/>
    <trip id="151" depart="185.00" from="893245580#1" to="-48537836#1" type="trafico_hora_pico"/>
    <trip id="152" depart="185.00" from="824632704#2" to="-48903044" type="trafico_hora_pico"/>
    <trip id="153" depart="185.00" from="241299690#0" to="403104439#0" type="trafico_hora_pico"/>
    <trip id="154" depart="186.00" from="-543543373" to="40668086#2" type="trafico_hora_pico"/>
    <trip id="155" depart="186.00" from="403104440#2" to="402795887" type="trafico_hora_pico"/>
    <trip id="156" depart="186.00" from="48903019#0" to="304931613#3" type="trafico_hora_pico"/>
    <trip id="157" depart="187.00" from="1363038401#0" to="548294140" type="trafico_hora_pico"/>
    <trip id="158" depart="188.00" from="-45393763#0" to="61390453" type="trafico_hora_pico"/>
    <trip id="159" depart="189.00" from="48537828#0" to="48903010#5" type="trafico_hora_pico"/>
    <trip id="160" depart="192.00" from="-48538433" to="91013777" type="trafico_hora_pico"/>
    <trip id="161" depart="192.00" from="-81508877#1" to="-61426861#0" type="trafico_hora_pico"/>
    <trip id="162" depart="195.00" from="-48537854" to="45393804#1" type="trafico_hora_pico"/>
    <trip id="163" depart="195.00" from="893240788" to="1106637267#2" type="trafico_hora_pico"/>
    <trip id="164" depart="199.00" from="397364887#0" to="-61426878#3" type="trafico_hora_pico"/>
    <trip id="165" depart="199.00" from="48537814" to="402678848" type="trafico_hora_pico"/>
    <trip id="166" depart="200.00" from="-252659495" to="48149038" type="trafico_hora_pico"/>
    <trip id="167" depart="203.00" from="-509965328#1" to="47198295#3" type="trafico_hora_pico"/>
    <trip id="168" depart="205.00" from="360625699" to="48903054#2" type="trafico_hora_pico"/>
    <trip id="169" depart="205.00" from="-542537659#9" to="527997818#0" type="trafico_hora_pico"/>
    <trip id="170" depart="205.00" from="542542888#0" to="-403104440#0" type="trafico_hora_pico"/>
    <trip id="171" depart="207.00" from="-404093308#1" to="61426880#8" type="trafico_hora_pico"/>
    <trip id="172" depart="207.00" from="-48903074#1" to="305293848#1" type="trafico_hora_pico"/>
    <trip id="173" depart="207.00" from="402686085#2" to="160535591#1" type="trafico_hora_pico"/>
    <trip id="174" depart="207.00" from="61426867#2" to="45393763#2" type="trafico_hora_pico"/>
    <trip id="175" depart="207.00" from="48537813#1" to="47198320#4" type="trafico_hora_pico"/>
    <trip id="176" depart="208.00" from="47198320#2" to="46227740#1" type="trafico_hora_pico"/>
    <trip id="177" depart="209.00" from="301927574" to="606417690#2" type="trafico_hora_pico"/>
    <trip id="178" depart="210.00" from="47652008#2" to="552447262#0" type="trafico_hora_pico"/>
    <trip id="179" depart="210.00" from="48903036#1" to="260535256#1" type="trafico_hora_pico"/>
    <trip id="180" depart="210.00" from="474831745#1" to="-45393773#5" type="trafico_hora_pico"/>
    <trip id="181" depart="211.00" from="-47652008#0" to="-48537838#5" type="trafico_hora_pico"/>
    <trip id="182" depart="211.00" from="160630184#1" to="-61426873#3" type="trafico_hora_pico"/>
    <trip id="183" depart="213.00" from="48903014#9" to="427451691" type="trafico_hora_pico"/>
    <trip id="184" depart="213.00" from="399278565" to="-48903022" type="trafico_hora_pico"/>
    <trip id="185" depart="214.00" from="337277957#4" to="-61426880#1" type="trafico_hora_pico"/>
    <trip id="186" depart="214.00" from="48203229#3" to="48903033#0" type="trafico_hora_pico"/>
    <trip id="187" depart="215.00" from="48537820" to="952380266#1" type="trafico_hora_pico"/>
    <trip id="188" depart="215.00" from="45393772#9" to="416621432#2" type="trafico_hora_pico"/>
    <trip id="189" depart="218.00" from="-48203221" to="304930424#0" type="trafico_hora_pico"/>
    <trip id="190" depart="219.00" from="402499842#0" to="-400809804#0" type="trafico_hora_pico"/>
    <trip id="191" depart="221.00" from="305293848#2" to="-160535588#4" type="trafico_hora_pico"/>
    <trip id="192" depart="222.00" from="-48102262#10" to="552447269" type="trafico_hora_pico"/>
    <trip id="193" depart="223.00" from="893268806" to="42456623#8" type="trafico_hora_pico"/>
    <trip id="194" depart="224.00" from="405030853" to="48903018#0" type="trafico_hora_pico"/>
    <trip id="195" depart="226.00" from="397470324#0" to="558922364#1" type="trafico_hora_pico"/>
    <trip id="196" depart="227.00" from="404412746" to="-45393770" type="trafico_hora_pico"/>
    <trip id="197" depart="229.00" from="-258715364#1" to="533793750#3" type="trafico_hora_pico"/>
    <trip id="198" depart="229.00" from="1177721348" to="241308387" type="trafico_hora_pico"/>
    <trip id="199" depart="230.00" from="45388030#3" to="-552506221#2" type="trafico_hora_pico"/>
    <trip id="200" depart="231.00" from="402686085#2" to="50557150#0" type="trafico_hora_pico"/>
    <trip id="201" depart="232.00" from="533241696" to="45393781#5" type="trafico_hora_pico"/>
    <trip id="202" depart="233.00" from="-45388030#1" to="-48537834#0" type="trafico_hora_pico"/>
    <trip id="203" depart="234.00" from="535363736#1" to="553308440#0" type="trafico_hora_pico"/>
    <trip id="204" depart="234.00" from="320862698#2" to="553296219#0" type="trafico_hora_pico"/>
    <trip id="205" depart="236.00" from="-304928016#1" to="48903087#1" type="trafico_hora_pico"/>
    <trip id="206" depart="236.00" from="45393768#3" to="91013812" type="trafico_hora_pico"/>
    <trip id="207" depart="237.00" from="-404316076" to="553318161#0" type="trafico_hora_pico"/>
    <trip id="208" depart="239.00" from="50367491#4" to="260535256#2" type="trafico_hora_pico"/>
    <trip id="209" depart="240.00" from="952380266#1" to="403002801#0" type="trafico_hora_pico"/>
    <trip id="210" depart="241.00" from="301927576#1" to="552506218#0" type="trafico_hora_pico"/>
    <trip id="211" depart="242.00" from="400679084#0" to="946923667#2" type="trafico_hora_pico"/>
    <trip id="212" depart="244.00" from="535363736#2" to="1148541133#3" type="trafico_hora_pico"/>
    <trip id="213" depart="245.00" from="542542890" to="46227740#4" type="trafico_hora_pico"/>
    <trip id="214" depart="245.00" from="304930424#1" to="48903069" type="trafico_hora_pico"/>
    <trip id="215" depart="246.00" from="48203224#0" to="-552272187#2" type="trafico_hora_pico"/>
    <trip id="216" depart="246.00" from="-48102262#8" to="-86134858#8" type="trafico_hora_pico"/>
    <trip id="217" depart="248.00" from="-543543373" to="-402686088#0" type="trafico_hora_pico"/>
    <trip id="218" depart="248.00" from="304930424#1" to="242069361#1" type="trafico_hora_pico"/>
    <trip id="219" depart="249.00" from="45388030#6" to="305048625#0" type="trafico_hora_pico"/>
    <trip id="220" depart="249.00" from="48903031" to="252659486#1" type="trafico_hora_pico"/>
    <trip id="221" depart="249.00" from="-897190043#5" to="61426868#1" type="trafico_hora_pico"/>
    <trip id="222" depart="252.00" from="91013781#0" to="48903013" type="trafico_hora_pico"/>
    <trip id="223" depart="253.00" from="-403104440#1" to="893427500#0" type="trafico_hora_pico"/>
    <trip id="224" depart="254.00" from="542395217#0" to="81508868#3" type="trafico_hora_pico"/>
    <trip id="225" depart="255.00" from="91013817" to="61426876" type="trafico_hora_pico"/>
    <trip id="226" depart="255.00" from="-45393801#1" to="61426873#1" type="trafico_hora_pico"/>
    <trip id="227" depart="257.00" from="-86134858#2" to="48903074#0" type="trafico_hora_pico"/>
    <trip id="228" depart="258.00" from="552616903" to="534903493#1" type="trafico_hora_pico"/>
    <trip id="229" depart="258.00" from="48538975#0" to="416621432#2" type="trafico_hora_pico"/>
    <trip id="230" depart="260.00" from="45393807" to="241264351#0" type="trafico_hora_pico"/>
    <trip id="231" depart="260.00" from="397470317" to="403003679#0" type="trafico_hora_pico"/>
    <trip id="232" depart="261.00" from="48203226#0" to="61426887#8" type="trafico_hora_pico"/>
    <trip id="233" depart="262.00" from="-403005984" to="42803220#1" type="trafico_hora_pico"/>
    <trip id="234" depart="263.00" from="107405956#3" to="824632704#4" type="trafico_hora_pico"/>
    <trip id="235" depart="265.00" from="320869211#1" to="893216950#2" type="trafico_hora_pico"/>
    <trip id="236" depart="267.00" from="250129559#2" to="-1101837198" type="trafico_hora_pico"/>
    <trip id="237" depart="269.00" from="535363734" to="49222375" type="trafico_hora_pico"/>
    <trip id="238" depart="269.00" from="48903092#1" to="403123670#1" type="trafico_hora_pico"/>
    <trip id="239" depart="269.00" from="48537855" to="360625700" type="trafico_hora_pico"/>
    <trip id="240" depart="271.00" from="-397269321" to="45393769#4" type="trafico_hora_pico"/>
    <trip id="241" depart="274.00" from="-613423020" to="402510057" type="trafico_hora_pico"/>
    <trip id="242" depart="275.00" from="-552616913" to="240449702#1" type="trafico_hora_pico"/>
    <trip id="243" depart="275.00" from="552616903" to="320869212" type="trafico_hora_pico"/>
    <trip id="244" depart="276.00" from="45393809#0" to="45393810#4" type="trafico_hora_pico"/>
    <trip id="245" depart="276.00" from="403898772#1" to="329974455#0" type="trafico_hora_pico"/>
    <trip id="246" depart="277.00" from="48853355" to="-400009910#0" type="trafico_hora_pico"/>
    <trip id="247" depart="278.00" from="-403898772#0" to="542415586#1" type="trafico_hora_pico"/>
    <trip id="248" depart="279.00" from="402792948#0" to="-48537876#0" type="trafico_hora_pico"/>
    <trip id="249" depart="280.00" from="61390458#0" to="402801839#2" type="trafico_hora_pico"/>
    <trip id="250" depart="280.00" from="-101460267#2" to="893245579#1" type="trafico_hora_pico"/>
    <trip id="251" depart="281.00" from="-542537659#1" to="48903023#0" type="trafico_hora_pico"/>
    <trip id="252" depart="281.00" from="-46227734#2" to="48537850" type="trafico_hora_pico"/>
    <trip id="253" depart="281.00" from="-48537852" to="81508886#0" type="trafico_hora_pico"/>
    <trip id="254" depart="282.00" from="101459744" to="48537862" type="trafico_hora_pico"/>
    <trip id="255" depart="282.00" from="-86134858#4" to="397364884#0" type="trafico_hora_pico"/>
    <trip id="256" depart="283.00" from="65157430#2" to="-552272187#1" type="trafico_hora_pico"/>
    <trip id="257" depart="284.00" from="392349033#1" to="29223185#0" type="trafico_hora_pico"/>
    <trip id="258" depart="284.00" from="48903022" to="1148281186#3" type="trafico_hora_pico"/>
    <trip id="259" depart="285.00" from="48537838#6" to="48903054#0" type="trafico_hora_pico"/>
    <trip id="260" depart="285.00" from="-1053087751" to="404947410" type="trafico_hora_pico"/>
    <trip id="261" depart="286.00" from="-46228464#1" to="1053087751" type="trafico_hora_pico"/>
    <trip id="262" depart="290.00" from="48548766#0" to="-160535588#2" type="trafico_hora_pico"/>
    <trip id="263" depart="290.00" from="48903017" to="552506218#1" type="trafico_hora_pico"/>
    <trip id="264" depart="291.00" from="91013796" to="402394678#2" type="trafico_hora_pico"/>
    <trip id="265" depart="292.00" from="-46227734#2" to="-404961938#2" type="trafico_hora_pico"/>
    <trip id="266" depart="292.00" from="337277957#2" to="49222369#1" type="trafico_hora_pico"/>
    <trip id="267" depart="295.00" from="-404316076" to="304928016#0" type="trafico_hora_pico"/>
    <trip id="268" depart="297.00" from="61426883#3" to="-48903018#0" type="trafico_hora_pico"/>
    <trip id="269" depart="298.00" from="534903531#3" to="527997818#2" type="trafico_hora_pico"/>
    <trip id="270" depart="298.00" from="-475312979#0" to="91013820" type="trafico_hora_pico"/>
    <trip id="271" depart="298.00" from="-48203231#3" to="45393767#1" type="trafico_hora_pico"/>
    <trip id="272" depart="299.00" from="-1237913736" to="48537850" type="trafico_hora_pico"/>
    <trip id="273" depart="300.00" from="400679084#10" to="48903204" type="trafico_hora_pico"/>
    <trip id="274" depart="301.00" from="48149038" to="-48914848#6" type="trafico_hora_pico"/>
    <trip id="275" depart="301.00" from="397465007#1" to="48903019#3" type="trafico_hora_pico"/>
    <trip id="276" depart="302.00" from="61426861#1" to="-45393797#1" type="trafico_hora_pico"/>
    <trip id="277" depart="302.00" from="-403898774" to="527997818#0" type="trafico_hora_pico"/>
    <trip id="278" depart="303.00" from="45426150#2" to="397470316" type="trafico_hora_pico"/>
    <trip id="279" depart="303.00" from="893268805" to="304930424#0" type="trafico_hora_pico"/>
    <trip id="280" depart="303.00" from="-48102295#1" to="242069218" type="trafico_hora_pico"/>
    <trip id="281" depart="303.00" from="-402510057" to="45393791#1" type="trafico_hora_pico"/>
    <trip id="282" depart="306.00" from="46227736" to="48102262#7" type="trafico_hora_pico"/>
    <trip id="283" depart="307.00" from="535613367#6" to="48903026#1" type="trafico_hora_pico"/>
    <trip id="284" depart="307.00" from="563376160#1" to="48538433" type="trafico_hora_pico"/>
    <trip id="285" depart="308.00" from="160535588#1" to="432676628" type="trafico_hora_pico"/>
    <trip id="286" depart="308.00" from="42141324#1" to="514836098" type="trafico_hora_pico"/>
    <trip id="287" depart="308.00" from="1203828273" to="-400907051#1" type="trafico_hora_pico"/>
    <trip id="288" depart="308.00" from="65089046#2" to="893239411#0" type="trafico_hora_pico"/>
    <trip id="289" depart="311.00" from="405030853" to="-48537826#0" type="trafico_hora_pico"/>
    <trip id="290" depart="312.00" from="40668089#1" to="47198297#1" type="trafico_hora_pico"/>
    <trip id="291" depart="314.00" from="427451695#6" to="895035173#5" type="trafico_hora_pico"/>
    <trip id="292" depart="314.00" from="91013792" to="81508888#0" type="trafico_hora_pico"/>
    <trip id="293" depart="316.00" from="-46227734#2" to="61426871#0" type="trafico_hora_pico"/>
    <trip id="294" depart="317.00" from="45393794#0" to="392349033#1" type="trafico_hora_pico"/>
    <trip id="295" depart="318.00" from="48859299" to="534903524#1" type="trafico_hora_pico"/>
    <trip id="296" depart="319.00" from="893216953#0" to="535613367#3" type="trafico_hora_pico"/>
    <trip id="297" depart="322.00" from="-160535588#0" to="-404093308#1" type="trafico_hora_pico"/>
    <trip id="298" depart="322.00" from="-895035173#1" to="-338566778#0" type="trafico_hora_pico"/>
    <trip id="299" depart="322.00" from="-338566780#0" to="542537659#7" type="trafico_hora_pico"/>
    <trip id="300" depart="323.00" from="42140284#1" to="48537813#4" type="trafico_hora_pico"/>
    <trip id="301" depart="323.00" from="407599401" to="400679084#7" type="trafico_hora_pico"/>
    <trip id="302" depart="323.00" from="48903026#1" to="-45393768#5" type="trafico_hora_pico"/>
    <trip id="303" depart="323.00" from="453516157#7" to="48203216#4" type="trafico_hora_pico"/>
    <trip id="304" depart="323.00" from="107405956#1" to="301927572#0" type="trafico_hora_pico"/>
    <trip id="305" depart="324.00" from="42141324#6" to="-81508887#2" type="trafico_hora_pico"/>
    <trip id="306" depart="326.00" from="542542887#1" to="45393772#10" type="trafico_hora_pico"/>